asd
 OpenBabel07242019243D

 86 90  0  0  1  0  0  0  0  0999 V2000
    0.0000    0.0000    0.0000 Ru  0  0  0  0  0  0  0  0  0  0  0  0
    1.9811    0.0000    0.0000 C   0  0  1  0  0  3  0  0  0  0  0  0
    2.8984    0.0000    0.9976 N   0  0  0  0  0  0  0  0  0  0  0  0
    4.2283   -0.4311    0.5225 C   0  0  1  0  0  0  0  0  0  0  0  0
    4.1294   -0.1510   -0.9789 C   0  0  2  0  0  0  0  0  0  0  0  0
    2.6689   -0.1856   -1.1704 N   0  0  0  0  0  0  0  0  0  0  0  0
    4.5104    0.8502   -1.2196 H   0  0  0  0  0  0  0  0  0  0  0  0
    4.3148   -1.5116    0.6738 H   0  0  0  0  0  0  0  0  0  0  0  0
    2.0926    0.0177   -2.4711 C   0  0  0  0  0  0  0  0  0  0  0  0
    2.0551    1.3215   -3.0085 C   0  0  0  0  0  0  0  0  0  0  0  0
    1.4395    1.5092   -4.2457 C   0  0  0  0  0  0  0  0  0  0  0  0
    0.8688    0.4467   -4.9577 C   0  0  0  0  0  0  0  0  0  0  0  0
    0.9728   -0.8382   -4.4242 C   0  0  0  0  0  0  0  0  0  0  0  0
    1.5980   -1.0817   -3.1942 C   0  0  0  0  0  0  0  0  0  0  0  0
    1.3946    2.5134   -4.6607 H   0  0  0  0  0  0  0  0  0  0  0  0
    0.5711   -1.6818   -4.9808 H   0  0  0  0  0  0  0  0  0  0  0  0
    1.7839   -2.5051   -2.7336 C   0  0  0  0  0  0  0  0  0  0  0  0
    2.6142   -2.9688   -3.2824 H   0  0  0  0  0  0  0  0  0  0  0  0
    1.9963   -2.5662   -1.6680 H   0  0  0  0  0  0  0  0  0  0  0  0
    0.8879   -3.0998   -2.9345 H   0  0  0  0  0  0  0  0  0  0  0  0
    2.6908    2.4918   -2.3015 C   0  0  0  0  0  0  0  0  0  0  0  0
    2.2457    3.4308   -2.6402 H   0  0  0  0  0  0  0  0  0  0  0  0
    3.7660    2.5403   -2.5179 H   0  0  0  0  0  0  0  0  0  0  0  0
    2.5630    2.4326   -1.2198 H   0  0  0  0  0  0  0  0  0  0  0  0
    0.1546    0.6923   -6.2641 C   0  0  0  0  0  0  0  0  0  0  0  0
    0.0871   -0.2224   -6.8610 H   0  0  0  0  0  0  0  0  0  0  0  0
    0.6644    1.4570   -6.8598 H   0  0  0  0  0  0  0  0  0  0  0  0
   -0.8688    1.0481   -6.0884 H   0  0  0  0  0  0  0  0  0  0  0  0
    2.6482    0.2211    2.3858 C   0  0  0  0  0  0  0  0  0  0  0  0
    2.4836    1.5443    2.8329 C   0  0  0  0  0  0  0  0  0  0  0  0
    2.2054    1.7521    4.1866 C   0  0  0  0  0  0  0  0  0  0  0  0
    2.0596    2.7690    4.5422 H   0  0  0  0  0  0  0  0  0  0  0  0
    2.2790   -0.6127    4.6093 C   0  0  0  0  0  0  0  0  0  0  0  0
    2.5615   -0.8708    3.2641 C   0  0  0  0  0  0  0  0  0  0  0  0
    2.1903   -1.4511    5.2957 H   0  0  0  0  0  0  0  0  0  0  0  0
    2.0965    0.6881    5.0892 C   0  0  0  0  0  0  0  0  0  0  0  0
    2.7358   -2.2864    2.7757 C   0  0  0  0  0  0  0  0  0  0  0  0
    2.3651   -2.9970    3.5199 H   0  0  0  0  0  0  0  0  0  0  0  0
    3.7928   -2.5228    2.5978 H   0  0  0  0  0  0  0  0  0  0  0  0
    2.1924   -2.4512    1.8403 H   0  0  0  0  0  0  0  0  0  0  0  0
    3.4096    2.6945    1.2403 H   0  0  0  0  0  0  0  0  0  0  0  0
    2.5155    2.7062    1.8725 C   0  0  0  0  0  0  0  0  0  0  0  0
    2.4962    3.6544    2.4168 H   0  0  0  0  0  0  0  0  0  0  0  0
    1.6520    2.6776    1.1976 H   0  0  0  0  0  0  0  0  0  0  0  0
    1.8132    0.9407    6.5497 C   0  0  0  0  0  0  0  0  0  0  0  0
    1.1857    1.8271    6.6864 H   0  0  0  0  0  0  0  0  0  0  0  0
    2.7445    1.1113    7.1053 H   0  0  0  0  0  0  0  0  0  0  0  0
    1.3095    0.0856    7.0112 H   0  0  0  0  0  0  0  0  0  0  0  0
   -0.3034    2.2463   -0.7911 Cl  0  0  0  0  0  0  0  0  0  0  0  0
   -0.0311   -2.4021    0.1684 Cl  0  0  0  0  0  0  0  0  0  0  0  0
   -0.3847    0.3239    1.7667 C   0  0  0  0  0  3  0  0  0  0  0  0
    0.3401    0.5495    2.5448 H   0  0  0  0  0  0  0  0  0  0  0  0
   -1.7569    0.2734    2.2121 C   0  0  0  0  0  0  0  0  0  0  0  0
   -2.7733    0.0216    1.2582 C   0  0  0  0  0  0  0  0  0  0  0  0
   -4.1105   -0.0598    1.6390 C   0  0  0  0  0  0  0  0  0  0  0  0
   -4.4360    0.1136    2.9889 C   0  0  0  0  0  0  0  0  0  0  0  0
   -3.4526    0.3669    3.9517 C   0  0  0  0  0  0  0  0  0  0  0  0
   -2.1198    0.4461    3.5620 C   0  0  0  0  0  0  0  0  0  0  0  0
   -1.3353    0.6371    4.2895 H   0  0  0  0  0  0  0  0  0  0  0  0
   -3.7295    0.4995    4.9924 H   0  0  0  0  0  0  0  0  0  0  0  0
   -5.4785    0.0501    3.2858 H   0  0  0  0  0  0  0  0  0  0  0  0
   -4.8949   -0.2514    0.9184 H   0  0  0  0  0  0  0  0  0  0  0  0
   -2.2963   -0.1404   -0.0112 O   0  0  0  0  0  0  0  0  0  0  0  0
    5.5671   -0.2126    2.2083 H   0  0  0  0  0  0  0  0  0  0  0  0
    5.1577    1.3111    1.4179 H   0  0  0  0  0  0  0  0  0  0  0  0
    6.6571    0.2637    0.4773 N   0  0  0  0  0  0  0  0  0  0  0  0
    5.3944    0.2611    1.2403 C   0  0  0  0  0  0  0  0  0  0  0  0
    6.8286    1.1116   -0.0564 H   0  0  0  0  0  0  0  0  0  0  0  0
    7.1294   -1.0762   -0.3820 S   0  0  0  0  0  0  0  0  0  0  0  0
    6.3097   -0.9086   -1.8483 N   0  0  0  0  0  0  0  0  0  0  0  0
    8.5424   -0.9362   -0.7279 O   0  0  0  0  0  0  0  0  0  0  0  0
    6.6677   -2.2360    0.3905 O   0  0  0  0  0  0  0  0  0  0  0  0
    4.5395   -1.0515   -2.8887 H   0  0  0  0  0  0  0  0  0  0  0  0
    4.6166   -2.1893   -1.5280 H   0  0  0  0  0  0  0  0  0  0  0  0
    4.8612   -1.1705   -1.8517 C   0  0  0  0  0  0  0  0  0  0  0  0
    6.8079   -1.4416   -2.5601 H   0  0  0  0  0  0  0  0  0  0  0  0
   -3.2077   -0.2475   -1.1550 C   0  0  0  0  0  0  0  0  0  0  0  0
   -3.9743   -0.9748   -0.8710 H   0  0  0  0  0  0  0  0  0  0  0  0
   -2.3957   -0.8002   -2.3143 C   0  0  0  0  0  0  0  0  0  0  0  0
   -1.6290   -0.0874   -2.6345 H   0  0  0  0  0  0  0  0  0  0  0  0
   -1.9096   -1.7391   -2.0383 H   0  0  0  0  0  0  0  0  0  0  0  0
   -3.0669   -0.9839   -3.1595 H   0  0  0  0  0  0  0  0  0  0  0  0
   -3.8219    1.1126   -1.4561 C   0  0  0  0  0  0  0  0  0  0  0  0
   -4.5239    1.0169   -2.2909 H   0  0  0  0  0  0  0  0  0  0  0  0
   -4.3670    1.5131   -0.5970 H   0  0  0  0  0  0  0  0  0  0  0  0
   -3.0331    1.8184   -1.7297 H   0  0  0  0  0  0  0  0  0  0  0  0
  1 50  1  0  0  0  0
  1 51  1  0  0  0  0
  2  1  1  1  0  0  0
  2  3  1  0  0  0  0
  3 29  1  0  0  0  0
  4  8  1  1  0  0  0
  4  3  1  0  0  0  0
  4 67  1  0  0  0  0
  5  7  1  6  0  0  0
  5  4  1  0  0  0  0
  6  5  1  0  0  0  0
  6  2  1  0  0  0  0
  9  6  1  0  0  0  0
 10  9  1  0  0  0  0
 10 21  1  0  0  0  0
 11 10  2  0  0  0  0
 12 13  2  0  0  0  0
 12 11  1  0  0  0  0
 13 14  1  0  0  0  0
 14 17  1  0  0  0  0
 14  9  2  0  0  0  0
 15 11  1  0  0  0  0
 16 13  1  0  0  0  0
 17 19  1  0  0  0  0
 18 17  1  0  0  0  0
 20 17  1  0  0  0  0
 21 24  1  0  0  0  0
 22 21  1  0  0  0  0
 23 21  1  0  0  0  0
 25 28  1  0  0  0  0
 25 12  1  0  0  0  0
 26 25  1  0  0  0  0
 27 25  1  0  0  0  0
 29 30  2  0  0  0  0
 29 34  1  0  0  0  0
 30 31  1  0  0  0  0
 31 32  1  0  0  0  0
 31 36  2  0  0  0  0
 33 36  1  0  0  0  0
 33 35  1  0  0  0  0
 34 33  2  0  0  0  0
 36 45  1  0  0  0  0
 37 34  1  0  0  0  0
 37 38  1  0  0  0  0
 39 37  1  0  0  0  0
 40 37  1  0  0  0  0
 41 42  1  0  0  0  0
 42 43  1  0  0  0  0
 42 30  1  0  0  0  0
 44 42  1  0  0  0  0
 45 46  1  0  0  0  0
 45 48  1  0  0  0  0
 45 47  1  0  0  0  0
 49  1  1  0  0  0  0
 51 53  1  0  0  0  0
 51 52  1  0  0  0  0
 53 58  1  0  0  0  0
 54 55  1  0  0  0  0
 54 53  2  0  0  0  0
 55 56  2  0  0  0  0
 56 61  1  0  0  0  0
 56 57  1  0  0  0  0
 57 60  1  0  0  0  0
 58 57  2  0  0  0  0
 58 59  1  0  0  0  0
 62 55  1  0  0  0  0
 63 54  1  0  0  0  0
 66 67  1  0  0  0  0
 67 65  1  0  0  0  0
 67 64  1  0  0  0  0
 68 66  1  0  0  0  0
 69 72  2  0  0  0  0
 69 66  1  0  0  0  0
 70 69  1  0  0  0  0
 71 69  2  0  0  0  0
 73 75  1  0  0  0  0
 75 70  1  0  0  0  0
 75 74  1  0  0  0  0
 75  5  1  0  0  0  0
 76 70  1  0  0  0  0
 77 78  1  0  0  0  0
 77 63  1  0  0  0  0
 79 81  1  0  0  0  0
 79 77  1  0  0  0  0
 80 79  1  0  0  0  0
 82 79  1  0  0  0  0
 83 77  1  0  0  0  0
 83 85  1  0  0  0  0
 84 83  1  0  0  0  0
 86 83  1  0  0  0  0
M  END
$$$$
asd
 OpenBabel07242019243D

 86 90  0  0  1  0  0  0  0  0999 V2000
    0.0000    0.0000    0.0000 Ru  0  0  0  0  0  0  0  0  0  0  0  0
    1.9811    0.0000    0.0000 C   0  0  1  0  0  3  0  0  0  0  0  0
    2.8984    0.0000    0.9976 N   0  0  0  0  0  0  0  0  0  0  0  0
    4.2283   -0.4311    0.5225 C   0  0  1  0  0  0  0  0  0  0  0  0
    4.1294   -0.1510   -0.9789 C   0  0  2  0  0  0  0  0  0  0  0  0
    2.6689   -0.1856   -1.1704 N   0  0  0  0  0  0  0  0  0  0  0  0
    4.5104    0.8502   -1.2196 H   0  0  0  0  0  0  0  0  0  0  0  0
    4.3148   -1.5116    0.6738 H   0  0  0  0  0  0  0  0  0  0  0  0
    2.0926    0.0177   -2.4711 C   0  0  0  0  0  0  0  0  0  0  0  0
    2.0551    1.3215   -3.0085 C   0  0  0  0  0  0  0  0  0  0  0  0
    1.4395    1.5092   -4.2457 C   0  0  0  0  0  0  0  0  0  0  0  0
    0.8688    0.4467   -4.9577 C   0  0  0  0  0  0  0  0  0  0  0  0
    0.9728   -0.8382   -4.4242 C   0  0  0  0  0  0  0  0  0  0  0  0
    1.5980   -1.0817   -3.1942 C   0  0  0  0  0  0  0  0  0  0  0  0
    1.3946    2.5134   -4.6607 H   0  0  0  0  0  0  0  0  0  0  0  0
    0.5711   -1.6818   -4.9808 H   0  0  0  0  0  0  0  0  0  0  0  0
    1.7839   -2.5051   -2.7336 C   0  0  0  0  0  0  0  0  0  0  0  0
    2.6142   -2.9688   -3.2824 H   0  0  0  0  0  0  0  0  0  0  0  0
    1.9963   -2.5662   -1.6680 H   0  0  0  0  0  0  0  0  0  0  0  0
    0.8879   -3.0998   -2.9345 H   0  0  0  0  0  0  0  0  0  0  0  0
    2.6908    2.4918   -2.3015 C   0  0  0  0  0  0  0  0  0  0  0  0
    2.2457    3.4308   -2.6402 H   0  0  0  0  0  0  0  0  0  0  0  0
    3.7660    2.5403   -2.5179 H   0  0  0  0  0  0  0  0  0  0  0  0
    2.5630    2.4326   -1.2198 H   0  0  0  0  0  0  0  0  0  0  0  0
    0.1546    0.6923   -6.2641 C   0  0  0  0  0  0  0  0  0  0  0  0
    0.0871   -0.2224   -6.8610 H   0  0  0  0  0  0  0  0  0  0  0  0
    0.6644    1.4570   -6.8598 H   0  0  0  0  0  0  0  0  0  0  0  0
   -0.8688    1.0481   -6.0884 H   0  0  0  0  0  0  0  0  0  0  0  0
    2.6482    0.2211    2.3858 C   0  0  0  0  0  0  0  0  0  0  0  0
    2.4836    1.5443    2.8329 C   0  0  0  0  0  0  0  0  0  0  0  0
    2.2054    1.7521    4.1866 C   0  0  0  0  0  0  0  0  0  0  0  0
    2.0596    2.7690    4.5422 H   0  0  0  0  0  0  0  0  0  0  0  0
    2.2790   -0.6127    4.6093 C   0  0  0  0  0  0  0  0  0  0  0  0
    2.5615   -0.8708    3.2641 C   0  0  0  0  0  0  0  0  0  0  0  0
    2.1903   -1.4511    5.2957 H   0  0  0  0  0  0  0  0  0  0  0  0
    2.0965    0.6881    5.0892 C   0  0  0  0  0  0  0  0  0  0  0  0
    2.7358   -2.2864    2.7757 C   0  0  0  0  0  0  0  0  0  0  0  0
    2.3651   -2.9970    3.5199 H   0  0  0  0  0  0  0  0  0  0  0  0
    3.7928   -2.5228    2.5978 H   0  0  0  0  0  0  0  0  0  0  0  0
    2.1924   -2.4512    1.8403 H   0  0  0  0  0  0  0  0  0  0  0  0
    3.4096    2.6945    1.2403 H   0  0  0  0  0  0  0  0  0  0  0  0
    2.5155    2.7062    1.8725 C   0  0  0  0  0  0  0  0  0  0  0  0
    2.4962    3.6544    2.4168 H   0  0  0  0  0  0  0  0  0  0  0  0
    1.6520    2.6776    1.1976 H   0  0  0  0  0  0  0  0  0  0  0  0
    1.8132    0.9407    6.5497 C   0  0  0  0  0  0  0  0  0  0  0  0
    1.1857    1.8271    6.6864 H   0  0  0  0  0  0  0  0  0  0  0  0
    2.7445    1.1113    7.1053 H   0  0  0  0  0  0  0  0  0  0  0  0
    1.3095    0.0856    7.0112 H   0  0  0  0  0  0  0  0  0  0  0  0
   -0.3034    2.2463   -0.7911 Cl  0  0  0  0  0  0  0  0  0  0  0  0
   -0.0311   -2.4021    0.1684 Cl  0  0  0  0  0  0  0  0  0  0  0  0
   -0.3847    0.3239    1.7667 C   0  0  0  0  0  3  0  0  0  0  0  0
    0.3401    0.5495    2.5448 H   0  0  0  0  0  0  0  0  0  0  0  0
   -1.7569    0.2734    2.2121 C   0  0  0  0  0  0  0  0  0  0  0  0
   -2.7733    0.0216    1.2582 C   0  0  0  0  0  0  0  0  0  0  0  0
   -4.1105   -0.0598    1.6390 C   0  0  0  0  0  0  0  0  0  0  0  0
   -4.4360    0.1136    2.9889 C   0  0  0  0  0  0  0  0  0  0  0  0
   -3.4526    0.3669    3.9517 C   0  0  0  0  0  0  0  0  0  0  0  0
   -2.1198    0.4461    3.5620 C   0  0  0  0  0  0  0  0  0  0  0  0
   -1.3353    0.6371    4.2895 H   0  0  0  0  0  0  0  0  0  0  0  0
   -3.7295    0.4995    4.9924 H   0  0  0  0  0  0  0  0  0  0  0  0
   -5.4785    0.0501    3.2858 H   0  0  0  0  0  0  0  0  0  0  0  0
   -4.8949   -0.2514    0.9184 H   0  0  0  0  0  0  0  0  0  0  0  0
   -2.2963   -0.1404   -0.0112 O   0  0  0  0  0  0  0  0  0  0  0  0
    5.5671   -0.2126    2.2083 H   0  0  0  0  0  0  0  0  0  0  0  0
    5.1577    1.3111    1.4179 H   0  0  0  0  0  0  0  0  0  0  0  0
    6.6571    0.2637    0.4773 N   0  0  0  0  0  0  0  0  0  0  0  0
    5.3944    0.2611    1.2403 C   0  0  0  0  0  0  0  0  0  0  0  0
    6.8286    1.1116   -0.0564 H   0  0  0  0  0  0  0  0  0  0  0  0
    7.1294   -1.0762   -0.3820 S   0  0  0  0  0  0  0  0  0  0  0  0
    6.3097   -0.9086   -1.8483 N   0  0  0  0  0  0  0  0  0  0  0  0
    8.5424   -0.9362   -0.7279 O   0  0  0  0  0  0  0  0  0  0  0  0
    6.6677   -2.2360    0.3905 O   0  0  0  0  0  0  0  0  0  0  0  0
    4.5395   -1.0515   -2.8887 H   0  0  0  0  0  0  0  0  0  0  0  0
    4.6166   -2.1893   -1.5280 H   0  0  0  0  0  0  0  0  0  0  0  0
    4.8612   -1.1705   -1.8517 C   0  0  0  0  0  0  0  0  0  0  0  0
    6.8079   -1.4416   -2.5601 H   0  0  0  0  0  0  0  0  0  0  0  0
   -3.2077   -0.2475   -1.1550 C   0  0  0  0  0  0  0  0  0  0  0  0
   -4.0441    0.4265   -0.9466 H   0  0  0  0  0  0  0  0  0  0  0  0
   -3.7121   -1.6805   -1.1829 C   0  0  0  0  0  0  0  0  0  0  0  0
   -2.9006   -2.3804   -1.4064 H   0  0  0  0  0  0  0  0  0  0  0  0
   -4.1599   -1.9558   -0.2249 H   0  0  0  0  0  0  0  0  0  0  0  0
   -4.4700   -1.7728   -1.9677 H   0  0  0  0  0  0  0  0  0  0  0  0
   -2.4828    0.1512   -2.4331 C   0  0  0  0  0  0  0  0  0  0  0  0
   -3.1788    0.0981   -3.2766 H   0  0  0  0  0  0  0  0  0  0  0  0
   -2.0908    1.1704   -2.3786 H   0  0  0  0  0  0  0  0  0  0  0  0
   -1.6502   -0.5346   -2.6113 H   0  0  0  0  0  0  0  0  0  0  0  0
  1 50  1  0  0  0  0
  1 51  1  0  0  0  0
  2  1  1  1  0  0  0
  2  3  1  0  0  0  0
  3 29  1  0  0  0  0
  4  8  1  1  0  0  0
  4  3  1  0  0  0  0
  4 67  1  0  0  0  0
  5  7  1  6  0  0  0
  5  4  1  0  0  0  0
  6  5  1  0  0  0  0
  6  2  1  0  0  0  0
  9  6  1  0  0  0  0
 10  9  1  0  0  0  0
 10 21  1  0  0  0  0
 11 10  2  0  0  0  0
 12 13  2  0  0  0  0
 12 11  1  0  0  0  0
 13 14  1  0  0  0  0
 14 17  1  0  0  0  0
 14  9  2  0  0  0  0
 15 11  1  0  0  0  0
 16 13  1  0  0  0  0
 17 19  1  0  0  0  0
 18 17  1  0  0  0  0
 20 17  1  0  0  0  0
 21 24  1  0  0  0  0
 22 21  1  0  0  0  0
 23 21  1  0  0  0  0
 25 28  1  0  0  0  0
 25 12  1  0  0  0  0
 26 25  1  0  0  0  0
 27 25  1  0  0  0  0
 29 30  2  0  0  0  0
 29 34  1  0  0  0  0
 30 31  1  0  0  0  0
 31 32  1  0  0  0  0
 31 36  2  0  0  0  0
 33 36  1  0  0  0  0
 33 35  1  0  0  0  0
 34 33  2  0  0  0  0
 36 45  1  0  0  0  0
 37 34  1  0  0  0  0
 37 38  1  0  0  0  0
 39 37  1  0  0  0  0
 40 37  1  0  0  0  0
 41 42  1  0  0  0  0
 42 43  1  0  0  0  0
 42 30  1  0  0  0  0
 44 42  1  0  0  0  0
 45 46  1  0  0  0  0
 45 48  1  0  0  0  0
 45 47  1  0  0  0  0
 49  1  1  0  0  0  0
 51 53  1  0  0  0  0
 51 52  1  0  0  0  0
 53 58  1  0  0  0  0
 54 55  1  0  0  0  0
 54 53  2  0  0  0  0
 55 56  2  0  0  0  0
 56 61  1  0  0  0  0
 56 57  1  0  0  0  0
 57 60  1  0  0  0  0
 58 57  2  0  0  0  0
 58 59  1  0  0  0  0
 62 55  1  0  0  0  0
 63 54  1  0  0  0  0
 66 67  1  0  0  0  0
 67 65  1  0  0  0  0
 67 64  1  0  0  0  0
 68 66  1  0  0  0  0
 69 72  2  0  0  0  0
 69 66  1  0  0  0  0
 70 69  1  0  0  0  0
 71 69  2  0  0  0  0
 73 75  1  0  0  0  0
 75 70  1  0  0  0  0
 75 74  1  0  0  0  0
 75  5  1  0  0  0  0
 76 70  1  0  0  0  0
 77 78  1  0  0  0  0
 77 63  1  0  0  0  0
 79 77  1  0  0  0  0
 79 81  1  0  0  0  0
 80 79  1  0  0  0  0
 82 79  1  0  0  0  0
 83 85  1  0  0  0  0
 83 77  1  0  0  0  0
 84 83  1  0  0  0  0
 86 83  1  0  0  0  0
M  END
$$$$
asd
 OpenBabel07242019243D

 86 90  0  0  1  0  0  0  0  0999 V2000
    0.0000    0.0000    0.0000 Ru  0  0  0  0  0  0  0  0  0  0  0  0
    1.9811    0.0000    0.0000 C   0  0  1  0  0  3  0  0  0  0  0  0
    2.8984    0.0000    0.9976 N   0  0  0  0  0  0  0  0  0  0  0  0
    4.2283   -0.4311    0.5225 C   0  0  1  0  0  0  0  0  0  0  0  0
    4.1294   -0.1510   -0.9789 C   0  0  2  0  0  0  0  0  0  0  0  0
    2.6689   -0.1856   -1.1704 N   0  0  0  0  0  0  0  0  0  0  0  0
    4.5104    0.8502   -1.2196 H   0  0  0  0  0  0  0  0  0  0  0  0
    4.3148   -1.5116    0.6738 H   0  0  0  0  0  0  0  0  0  0  0  0
    2.0926    0.0177   -2.4711 C   0  0  0  0  0  0  0  0  0  0  0  0
    2.0551    1.3215   -3.0085 C   0  0  0  0  0  0  0  0  0  0  0  0
    1.4395    1.5092   -4.2457 C   0  0  0  0  0  0  0  0  0  0  0  0
    0.8688    0.4467   -4.9577 C   0  0  0  0  0  0  0  0  0  0  0  0
    0.9728   -0.8382   -4.4242 C   0  0  0  0  0  0  0  0  0  0  0  0
    1.5980   -1.0817   -3.1942 C   0  0  0  0  0  0  0  0  0  0  0  0
    1.3946    2.5134   -4.6607 H   0  0  0  0  0  0  0  0  0  0  0  0
    0.5711   -1.6818   -4.9808 H   0  0  0  0  0  0  0  0  0  0  0  0
    1.7839   -2.5051   -2.7336 C   0  0  0  0  0  0  0  0  0  0  0  0
    2.6142   -2.9688   -3.2824 H   0  0  0  0  0  0  0  0  0  0  0  0
    1.9963   -2.5662   -1.6680 H   0  0  0  0  0  0  0  0  0  0  0  0
    0.8879   -3.0998   -2.9345 H   0  0  0  0  0  0  0  0  0  0  0  0
    2.6908    2.4918   -2.3015 C   0  0  0  0  0  0  0  0  0  0  0  0
    2.2457    3.4308   -2.6402 H   0  0  0  0  0  0  0  0  0  0  0  0
    3.7660    2.5403   -2.5179 H   0  0  0  0  0  0  0  0  0  0  0  0
    2.5630    2.4326   -1.2198 H   0  0  0  0  0  0  0  0  0  0  0  0
    0.1546    0.6923   -6.2641 C   0  0  0  0  0  0  0  0  0  0  0  0
    0.0871   -0.2224   -6.8610 H   0  0  0  0  0  0  0  0  0  0  0  0
    0.6644    1.4570   -6.8598 H   0  0  0  0  0  0  0  0  0  0  0  0
   -0.8688    1.0481   -6.0884 H   0  0  0  0  0  0  0  0  0  0  0  0
    2.6482    0.2211    2.3858 C   0  0  0  0  0  0  0  0  0  0  0  0
    2.4836    1.5443    2.8329 C   0  0  0  0  0  0  0  0  0  0  0  0
    2.2054    1.7521    4.1866 C   0  0  0  0  0  0  0  0  0  0  0  0
    2.0596    2.7690    4.5422 H   0  0  0  0  0  0  0  0  0  0  0  0
    2.2790   -0.6127    4.6093 C   0  0  0  0  0  0  0  0  0  0  0  0
    2.5615   -0.8708    3.2641 C   0  0  0  0  0  0  0  0  0  0  0  0
    2.1903   -1.4511    5.2957 H   0  0  0  0  0  0  0  0  0  0  0  0
    2.0965    0.6881    5.0892 C   0  0  0  0  0  0  0  0  0  0  0  0
    2.7358   -2.2864    2.7757 C   0  0  0  0  0  0  0  0  0  0  0  0
    2.3651   -2.9970    3.5199 H   0  0  0  0  0  0  0  0  0  0  0  0
    3.7928   -2.5228    2.5978 H   0  0  0  0  0  0  0  0  0  0  0  0
    2.1924   -2.4512    1.8403 H   0  0  0  0  0  0  0  0  0  0  0  0
    3.4096    2.6945    1.2403 H   0  0  0  0  0  0  0  0  0  0  0  0
    2.5155    2.7062    1.8725 C   0  0  0  0  0  0  0  0  0  0  0  0
    2.4962    3.6544    2.4168 H   0  0  0  0  0  0  0  0  0  0  0  0
    1.6520    2.6776    1.1976 H   0  0  0  0  0  0  0  0  0  0  0  0
    1.8132    0.9407    6.5497 C   0  0  0  0  0  0  0  0  0  0  0  0
    1.1857    1.8271    6.6864 H   0  0  0  0  0  0  0  0  0  0  0  0
    2.7445    1.1113    7.1053 H   0  0  0  0  0  0  0  0  0  0  0  0
    1.3095    0.0856    7.0112 H   0  0  0  0  0  0  0  0  0  0  0  0
   -0.3034    2.2463   -0.7911 Cl  0  0  0  0  0  0  0  0  0  0  0  0
   -0.0311   -2.4021    0.1684 Cl  0  0  0  0  0  0  0  0  0  0  0  0
   -0.3847    0.3239    1.7667 C   0  0  0  0  0  3  0  0  0  0  0  0
    0.3401    0.5495    2.5448 H   0  0  0  0  0  0  0  0  0  0  0  0
   -1.7569    0.2734    2.2121 C   0  0  0  0  0  0  0  0  0  0  0  0
   -2.7733    0.0216    1.2582 C   0  0  0  0  0  0  0  0  0  0  0  0
   -4.1105   -0.0598    1.6390 C   0  0  0  0  0  0  0  0  0  0  0  0
   -4.4360    0.1136    2.9889 C   0  0  0  0  0  0  0  0  0  0  0  0
   -3.4526    0.3669    3.9517 C   0  0  0  0  0  0  0  0  0  0  0  0
   -2.1198    0.4461    3.5620 C   0  0  0  0  0  0  0  0  0  0  0  0
   -1.3353    0.6371    4.2895 H   0  0  0  0  0  0  0  0  0  0  0  0
   -3.7295    0.4995    4.9924 H   0  0  0  0  0  0  0  0  0  0  0  0
   -5.4785    0.0501    3.2858 H   0  0  0  0  0  0  0  0  0  0  0  0
   -4.8949   -0.2514    0.9184 H   0  0  0  0  0  0  0  0  0  0  0  0
   -2.2963   -0.1404   -0.0112 O   0  0  0  0  0  0  0  0  0  0  0  0
    5.5671   -0.2126    2.2083 H   0  0  0  0  0  0  0  0  0  0  0  0
    5.1577    1.3111    1.4179 H   0  0  0  0  0  0  0  0  0  0  0  0
    6.6571    0.2637    0.4773 N   0  0  0  0  0  0  0  0  0  0  0  0
    5.3944    0.2611    1.2403 C   0  0  0  0  0  0  0  0  0  0  0  0
    6.8286    1.1116   -0.0564 H   0  0  0  0  0  0  0  0  0  0  0  0
    7.1294   -1.0762   -0.3820 S   0  0  0  0  0  0  0  0  0  0  0  0
    6.3097   -0.9086   -1.8483 N   0  0  0  0  0  0  0  0  0  0  0  0
    8.5424   -0.9362   -0.7279 O   0  0  0  0  0  0  0  0  0  0  0  0
    6.6677   -2.2360    0.3905 O   0  0  0  0  0  0  0  0  0  0  0  0
    4.5395   -1.0515   -2.8887 H   0  0  0  0  0  0  0  0  0  0  0  0
    4.6166   -2.1893   -1.5280 H   0  0  0  0  0  0  0  0  0  0  0  0
    4.8612   -1.1705   -1.8517 C   0  0  0  0  0  0  0  0  0  0  0  0
    6.8079   -1.4416   -2.5601 H   0  0  0  0  0  0  0  0  0  0  0  0
   -3.2077   -0.2475   -1.1550 C   0  0  0  0  0  0  0  0  0  0  0  0
   -2.5769   -0.3010   -2.0475 H   0  0  0  0  0  0  0  0  0  0  0  0
   -4.0213    1.0352   -1.1909 C   0  0  0  0  0  0  0  0  0  0  0  0
   -4.6773    1.1111   -0.3178 H   0  0  0  0  0  0  0  0  0  0  0  0
   -3.3687    1.9112   -1.2176 H   0  0  0  0  0  0  0  0  0  0  0  0
   -4.6464    1.0317   -2.0898 H   0  0  0  0  0  0  0  0  0  0  0  0
   -4.0708   -1.4938   -1.0136 C   0  0  0  0  0  0  0  0  0  0  0  0
   -4.7259   -1.5823   -1.8865 H   0  0  0  0  0  0  0  0  0  0  0  0
   -3.4668   -2.4028   -0.9475 H   0  0  0  0  0  0  0  0  0  0  0  0
   -4.6836   -1.4146   -0.1117 H   0  0  0  0  0  0  0  0  0  0  0  0
  1 50  1  0  0  0  0
  1 51  1  0  0  0  0
  2  1  1  1  0  0  0
  2  3  1  0  0  0  0
  3 29  1  0  0  0  0
  4  8  1  1  0  0  0
  4  3  1  0  0  0  0
  4 67  1  0  0  0  0
  5  7  1  6  0  0  0
  5  4  1  0  0  0  0
  6  5  1  0  0  0  0
  6  2  1  0  0  0  0
  9  6  1  0  0  0  0
 10  9  1  0  0  0  0
 10 21  1  0  0  0  0
 11 10  2  0  0  0  0
 12 13  2  0  0  0  0
 12 11  1  0  0  0  0
 13 14  1  0  0  0  0
 14 17  1  0  0  0  0
 14  9  2  0  0  0  0
 15 11  1  0  0  0  0
 16 13  1  0  0  0  0
 17 19  1  0  0  0  0
 18 17  1  0  0  0  0
 20 17  1  0  0  0  0
 21 24  1  0  0  0  0
 22 21  1  0  0  0  0
 23 21  1  0  0  0  0
 25 28  1  0  0  0  0
 25 12  1  0  0  0  0
 26 25  1  0  0  0  0
 27 25  1  0  0  0  0
 29 30  2  0  0  0  0
 29 34  1  0  0  0  0
 30 31  1  0  0  0  0
 31 32  1  0  0  0  0
 31 36  2  0  0  0  0
 33 36  1  0  0  0  0
 33 35  1  0  0  0  0
 34 33  2  0  0  0  0
 36 45  1  0  0  0  0
 37 34  1  0  0  0  0
 37 38  1  0  0  0  0
 39 37  1  0  0  0  0
 40 37  1  0  0  0  0
 41 42  1  0  0  0  0
 42 43  1  0  0  0  0
 42 30  1  0  0  0  0
 44 42  1  0  0  0  0
 45 46  1  0  0  0  0
 45 48  1  0  0  0  0
 45 47  1  0  0  0  0
 49  1  1  0  0  0  0
 51 53  1  0  0  0  0
 51 52  1  0  0  0  0
 53 58  1  0  0  0  0
 54 55  1  0  0  0  0
 54 53  2  0  0  0  0
 55 56  2  0  0  0  0
 56 61  1  0  0  0  0
 56 57  1  0  0  0  0
 57 60  1  0  0  0  0
 58 57  2  0  0  0  0
 58 59  1  0  0  0  0
 62 55  1  0  0  0  0
 63 54  1  0  0  0  0
 66 67  1  0  0  0  0
 67 65  1  0  0  0  0
 67 64  1  0  0  0  0
 68 66  1  0  0  0  0
 69 72  2  0  0  0  0
 69 66  1  0  0  0  0
 70 69  1  0  0  0  0
 71 69  2  0  0  0  0
 73 75  1  0  0  0  0
 75 70  1  0  0  0  0
 75 74  1  0  0  0  0
 75  5  1  0  0  0  0
 76 70  1  0  0  0  0
 77 83  1  0  0  0  0
 77 63  1  0  0  0  0
 78 77  1  0  0  0  0
 79 77  1  0  0  0  0
 79 80  1  0  0  0  0
 81 79  1  0  0  0  0
 82 79  1  0  0  0  0
 83 85  1  0  0  0  0
 83 86  1  0  0  0  0
 84 83  1  0  0  0  0
M  END
