asd
 OpenBabel07242019243D

 86 90  0  0  1  0  0  0  0  0999 V2000
    0.0000    0.0000    0.0000 Ru  0  0  0  0  0  0  0  0  0  0  0  0
    1.9819    0.0000    0.0000 C   0  0  1  0  0  3  0  0  0  0  0  0
    2.8983    0.0000    0.9983 N   0  0  0  0  0  0  0  0  0  0  0  0
    4.2330   -0.4226    0.5266 C   0  0  1  0  0  0  0  0  0  0  0  0
    4.1307   -0.1676   -0.9796 C   0  0  2  0  0  0  0  0  0  0  0  0
    2.6695   -0.1861   -1.1696 N   0  0  0  0  0  0  0  0  0  0  0  0
    4.5216    0.8263   -1.2374 H   0  0  0  0  0  0  0  0  0  0  0  0
    4.3337   -1.4991    0.6977 H   0  0  0  0  0  0  0  0  0  0  0  0
    2.0958    0.0143   -2.4718 C   0  0  0  0  0  0  0  0  0  0  0  0
    2.0670    1.3165   -3.0137 C   0  0  0  0  0  0  0  0  0  0  0  0
    1.4562    1.5038   -4.2533 C   0  0  0  0  0  0  0  0  0  0  0  0
    0.8812    0.4424   -4.9635 C   0  0  0  0  0  0  0  0  0  0  0  0
    0.9751   -0.8410   -4.4249 C   0  0  0  0  0  0  0  0  0  0  0  0
    1.5952   -1.0844   -3.1921 C   0  0  0  0  0  0  0  0  0  0  0  0
    1.4184    2.5069   -4.6717 H   0  0  0  0  0  0  0  0  0  0  0  0
    0.5694   -1.6840   -4.9793 H   0  0  0  0  0  0  0  0  0  0  0  0
    1.7674   -2.5079   -2.7259 C   0  0  0  0  0  0  0  0  0  0  0  0
    2.5866   -2.9851   -3.2795 H   0  0  0  0  0  0  0  0  0  0  0  0
    1.9879   -2.5667   -1.6619 H   0  0  0  0  0  0  0  0  0  0  0  0
    0.8619   -3.0920   -2.9156 H   0  0  0  0  0  0  0  0  0  0  0  0
    2.7051    2.4857   -2.3071 C   0  0  0  0  0  0  0  0  0  0  0  0
    2.2664    3.4259   -2.6508 H   0  0  0  0  0  0  0  0  0  0  0  0
    3.7817    2.5288   -2.5180 H   0  0  0  0  0  0  0  0  0  0  0  0
    2.5715    2.4299   -1.2260 H   0  0  0  0  0  0  0  0  0  0  0  0
    0.1730    0.6879   -6.2732 C   0  0  0  0  0  0  0  0  0  0  0  0
    0.0984   -0.2294   -6.8652 H   0  0  0  0  0  0  0  0  0  0  0  0
    0.6917    1.4445   -6.8715 H   0  0  0  0  0  0  0  0  0  0  0  0
   -0.8474    1.0546   -6.1022 H   0  0  0  0  0  0  0  0  0  0  0  0
    2.6464    0.2281    2.3851 C   0  0  0  0  0  0  0  0  0  0  0  0
    2.4783    1.5532    2.8258 C   0  0  0  0  0  0  0  0  0  0  0  0
    2.2012    1.7670    4.1788 C   0  0  0  0  0  0  0  0  0  0  0  0
    2.0530    2.7853    4.5293 H   0  0  0  0  0  0  0  0  0  0  0  0
    2.2802   -0.5958    4.6130 C   0  0  0  0  0  0  0  0  0  0  0  0
    2.5621   -0.8596    3.2688 C   0  0  0  0  0  0  0  0  0  0  0  0
    2.1935   -1.4313    5.3033 H   0  0  0  0  0  0  0  0  0  0  0  0
    2.0958    0.7069    5.0869 C   0  0  0  0  0  0  0  0  0  0  0  0
    2.7386   -2.2771    2.7870 C   0  0  0  0  0  0  0  0  0  0  0  0
    2.3637   -2.9844    3.5322 H   0  0  0  0  0  0  0  0  0  0  0  0
    3.7965   -2.5145    2.6162 H   0  0  0  0  0  0  0  0  0  0  0  0
    2.2005   -2.4454    1.8493 H   0  0  0  0  0  0  0  0  0  0  0  0
    3.3901    2.6974    1.2199 H   0  0  0  0  0  0  0  0  0  0  0  0
    2.5021    2.7109    1.8602 C   0  0  0  0  0  0  0  0  0  0  0  0
    2.4869    3.6614    2.4007 H   0  0  0  0  0  0  0  0  0  0  0  0
    1.6328    2.6791    1.1931 H   0  0  0  0  0  0  0  0  0  0  0  0
    1.8140    0.9662    6.5465 C   0  0  0  0  0  0  0  0  0  0  0  0
    1.1843    1.8516    6.6796 H   0  0  0  0  0  0  0  0  0  0  0  0
    2.7458    1.1424    7.0996 H   0  0  0  0  0  0  0  0  0  0  0  0
    1.3134    0.1122    7.0131 H   0  0  0  0  0  0  0  0  0  0  0  0
   -0.3013    2.2410   -0.8064 Cl  0  0  0  0  0  0  0  0  0  0  0  0
   -0.0307   -2.4007    0.1830 Cl  0  0  0  0  0  0  0  0  0  0  0  0
   -0.3863    0.3347    1.7644 C   0  0  0  0  0  3  0  0  0  0  0  0
    0.3382    0.5623    2.5422 H   0  0  0  0  0  0  0  0  0  0  0  0
   -1.7590    0.2902    2.2086 C   0  0  0  0  0  0  0  0  0  0  0  0
   -2.7749    0.0338    1.2555 C   0  0  0  0  0  0  0  0  0  0  0  0
   -4.1127   -0.0415    1.6354 C   0  0  0  0  0  0  0  0  0  0  0  0
   -4.4394    0.1427    2.9835 C   0  0  0  0  0  0  0  0  0  0  0  0
   -3.4564    0.4006    3.9456 C   0  0  0  0  0  0  0  0  0  0  0  0
   -2.1229    0.4734    3.5569 C   0  0  0  0  0  0  0  0  0  0  0  0
   -1.3387    0.6676    4.2838 H   0  0  0  0  0  0  0  0  0  0  0  0
   -3.7342    0.5416    4.9849 H   0  0  0  0  0  0  0  0  0  0  0  0
   -5.4824    0.0842    3.2796 H   0  0  0  0  0  0  0  0  0  0  0  0
   -4.8968   -0.2364    0.9152 H   0  0  0  0  0  0  0  0  0  0  0  0
   -2.2967   -0.1388   -0.0122 O   0  0  0  0  0  0  0  0  0  0  0  0
    5.5245   -0.1409    2.2334 H   0  0  0  0  0  0  0  0  0  0  0  0
    5.1362    1.3516    1.3754 H   0  0  0  0  0  0  0  0  0  0  0  0
    6.6684    0.2732    0.5223 N   0  0  0  0  0  0  0  0  0  0  0  0
    5.3836    0.2976    1.2429 C   0  0  0  0  0  0  0  0  0  0  0  0
    6.9219    1.1443    0.0646 H   0  0  0  0  0  0  0  0  0  0  0  0
    7.1377   -1.0427   -0.3897 S   0  0  0  0  0  0  0  0  0  0  0  0
    6.3116   -1.0810   -1.8513 N   0  0  0  0  0  0  0  0  0  0  0  0
    8.5333   -0.8078   -0.7516 O   0  0  0  0  0  0  0  0  0  0  0  0
    6.7096   -2.2238    0.3601 O   0  0  0  0  0  0  0  0  0  0  0  0
    4.5240   -1.1458   -2.8687 H   0  0  0  0  0  0  0  0  0  0  0  0
    4.6029   -2.2251   -1.4717 H   0  0  0  0  0  0  0  0  0  0  0  0
    4.8499   -1.2228   -1.8292 C   0  0  0  0  0  0  0  0  0  0  0  0
    6.6432   -0.3255   -2.4484 H   0  0  0  0  0  0  0  0  0  0  0  0
   -3.2073   -0.2530   -1.1560 C   0  0  0  0  0  0  0  0  0  0  0  0
   -3.9758   -0.9763   -0.8669 H   0  0  0  0  0  0  0  0  0  0  0  0
   -2.3956   -0.8168   -2.3099 C   0  0  0  0  0  0  0  0  0  0  0  0
   -1.6270   -0.1084   -2.6351 H   0  0  0  0  0  0  0  0  0  0  0  0
   -1.9121   -1.7547   -2.0260 H   0  0  0  0  0  0  0  0  0  0  0  0
   -3.0664   -1.0056   -3.1544 H   0  0  0  0  0  0  0  0  0  0  0  0
   -3.8184    1.1059   -1.4687 C   0  0  0  0  0  0  0  0  0  0  0  0
   -4.5201    1.0049   -2.3032 H   0  0  0  0  0  0  0  0  0  0  0  0
   -4.3633    1.5146   -0.6134 H   0  0  0  0  0  0  0  0  0  0  0  0
   -3.0279    1.8078   -1.7474 H   0  0  0  0  0  0  0  0  0  0  0  0
  1 50  1  0  0  0  0
  1 51  1  0  0  0  0
  2  1  1  1  0  0  0
  2  3  1  0  0  0  0
  3 29  1  0  0  0  0
  4  8  1  1  0  0  0
  4  3  1  0  0  0  0
  4 67  1  0  0  0  0
  5  7  1  6  0  0  0
  5  4  1  0  0  0  0
  6  5  1  0  0  0  0
  6  2  1  0  0  0  0
  9  6  1  0  0  0  0
 10  9  1  0  0  0  0
 10 21  1  0  0  0  0
 11 10  2  0  0  0  0
 12 13  2  0  0  0  0
 12 11  1  0  0  0  0
 13 14  1  0  0  0  0
 14 17  1  0  0  0  0
 14  9  2  0  0  0  0
 15 11  1  0  0  0  0
 16 13  1  0  0  0  0
 17 19  1  0  0  0  0
 18 17  1  0  0  0  0
 20 17  1  0  0  0  0
 21 24  1  0  0  0  0
 22 21  1  0  0  0  0
 23 21  1  0  0  0  0
 25 28  1  0  0  0  0
 25 12  1  0  0  0  0
 26 25  1  0  0  0  0
 27 25  1  0  0  0  0
 29 30  2  0  0  0  0
 29 34  1  0  0  0  0
 30 31  1  0  0  0  0
 31 32  1  0  0  0  0
 31 36  2  0  0  0  0
 33 36  1  0  0  0  0
 33 35  1  0  0  0  0
 34 33  2  0  0  0  0
 36 45  1  0  0  0  0
 37 34  1  0  0  0  0
 37 38  1  0  0  0  0
 39 37  1  0  0  0  0
 40 37  1  0  0  0  0
 41 42  1  0  0  0  0
 42 43  1  0  0  0  0
 42 30  1  0  0  0  0
 44 42  1  0  0  0  0
 45 46  1  0  0  0  0
 45 48  1  0  0  0  0
 45 47  1  0  0  0  0
 49  1  1  0  0  0  0
 51 53  1  0  0  0  0
 51 52  1  0  0  0  0
 53 58  1  0  0  0  0
 54 55  1  0  0  0  0
 54 53  2  0  0  0  0
 55 56  2  0  0  0  0
 56 61  1  0  0  0  0
 56 57  1  0  0  0  0
 57 60  1  0  0  0  0
 58 57  2  0  0  0  0
 58 59  1  0  0  0  0
 62 55  1  0  0  0  0
 63 54  1  0  0  0  0
 66 67  1  0  0  0  0
 67 65  1  0  0  0  0
 67 64  1  0  0  0  0
 68 66  1  0  0  0  0
 69 72  2  0  0  0  0
 69 66  1  0  0  0  0
 70 75  1  0  0  0  0
 70 69  1  0  0  0  0
 71 69  2  0  0  0  0
 73 75  1  0  0  0  0
 75 74  1  0  0  0  0
 75  5  1  0  0  0  0
 76 70  1  0  0  0  0
 77 78  1  0  0  0  0
 77 63  1  0  0  0  0
 79 81  1  0  0  0  0
 79 77  1  0  0  0  0
 80 79  1  0  0  0  0
 82 79  1  0  0  0  0
 83 77  1  0  0  0  0
 83 85  1  0  0  0  0
 84 83  1  0  0  0  0
 86 83  1  0  0  0  0
M  END
$$$$
asd
 OpenBabel07242019243D

 86 90  0  0  1  0  0  0  0  0999 V2000
    0.0000    0.0000    0.0000 Ru  0  0  0  0  0  0  0  0  0  0  0  0
    1.9819    0.0000    0.0000 C   0  0  1  0  0  3  0  0  0  0  0  0
    2.8983    0.0000    0.9983 N   0  0  0  0  0  0  0  0  0  0  0  0
    4.2330   -0.4226    0.5266 C   0  0  1  0  0  0  0  0  0  0  0  0
    4.1307   -0.1676   -0.9796 C   0  0  2  0  0  0  0  0  0  0  0  0
    2.6695   -0.1861   -1.1696 N   0  0  0  0  0  0  0  0  0  0  0  0
    4.5216    0.8263   -1.2374 H   0  0  0  0  0  0  0  0  0  0  0  0
    4.3337   -1.4991    0.6977 H   0  0  0  0  0  0  0  0  0  0  0  0
    2.0958    0.0143   -2.4718 C   0  0  0  0  0  0  0  0  0  0  0  0
    2.0670    1.3165   -3.0137 C   0  0  0  0  0  0  0  0  0  0  0  0
    1.4562    1.5038   -4.2533 C   0  0  0  0  0  0  0  0  0  0  0  0
    0.8812    0.4424   -4.9635 C   0  0  0  0  0  0  0  0  0  0  0  0
    0.9751   -0.8410   -4.4249 C   0  0  0  0  0  0  0  0  0  0  0  0
    1.5952   -1.0844   -3.1921 C   0  0  0  0  0  0  0  0  0  0  0  0
    1.4184    2.5069   -4.6717 H   0  0  0  0  0  0  0  0  0  0  0  0
    0.5694   -1.6840   -4.9793 H   0  0  0  0  0  0  0  0  0  0  0  0
    1.7674   -2.5079   -2.7259 C   0  0  0  0  0  0  0  0  0  0  0  0
    2.5866   -2.9851   -3.2795 H   0  0  0  0  0  0  0  0  0  0  0  0
    1.9879   -2.5667   -1.6619 H   0  0  0  0  0  0  0  0  0  0  0  0
    0.8619   -3.0920   -2.9156 H   0  0  0  0  0  0  0  0  0  0  0  0
    2.7051    2.4857   -2.3071 C   0  0  0  0  0  0  0  0  0  0  0  0
    2.2664    3.4259   -2.6508 H   0  0  0  0  0  0  0  0  0  0  0  0
    3.7817    2.5288   -2.5180 H   0  0  0  0  0  0  0  0  0  0  0  0
    2.5715    2.4299   -1.2260 H   0  0  0  0  0  0  0  0  0  0  0  0
    0.1730    0.6879   -6.2732 C   0  0  0  0  0  0  0  0  0  0  0  0
    0.0984   -0.2294   -6.8652 H   0  0  0  0  0  0  0  0  0  0  0  0
    0.6917    1.4445   -6.8715 H   0  0  0  0  0  0  0  0  0  0  0  0
   -0.8474    1.0546   -6.1022 H   0  0  0  0  0  0  0  0  0  0  0  0
    2.6464    0.2281    2.3851 C   0  0  0  0  0  0  0  0  0  0  0  0
    2.4783    1.5532    2.8258 C   0  0  0  0  0  0  0  0  0  0  0  0
    2.2012    1.7670    4.1788 C   0  0  0  0  0  0  0  0  0  0  0  0
    2.0530    2.7853    4.5293 H   0  0  0  0  0  0  0  0  0  0  0  0
    2.2802   -0.5958    4.6130 C   0  0  0  0  0  0  0  0  0  0  0  0
    2.5621   -0.8596    3.2688 C   0  0  0  0  0  0  0  0  0  0  0  0
    2.1935   -1.4313    5.3033 H   0  0  0  0  0  0  0  0  0  0  0  0
    2.0958    0.7069    5.0869 C   0  0  0  0  0  0  0  0  0  0  0  0
    2.7386   -2.2771    2.7870 C   0  0  0  0  0  0  0  0  0  0  0  0
    2.3637   -2.9844    3.5322 H   0  0  0  0  0  0  0  0  0  0  0  0
    3.7965   -2.5145    2.6162 H   0  0  0  0  0  0  0  0  0  0  0  0
    2.2005   -2.4454    1.8493 H   0  0  0  0  0  0  0  0  0  0  0  0
    3.3901    2.6974    1.2199 H   0  0  0  0  0  0  0  0  0  0  0  0
    2.5021    2.7109    1.8602 C   0  0  0  0  0  0  0  0  0  0  0  0
    2.4869    3.6614    2.4007 H   0  0  0  0  0  0  0  0  0  0  0  0
    1.6328    2.6791    1.1931 H   0  0  0  0  0  0  0  0  0  0  0  0
    1.8140    0.9662    6.5465 C   0  0  0  0  0  0  0  0  0  0  0  0
    1.1843    1.8516    6.6796 H   0  0  0  0  0  0  0  0  0  0  0  0
    2.7458    1.1424    7.0996 H   0  0  0  0  0  0  0  0  0  0  0  0
    1.3134    0.1122    7.0131 H   0  0  0  0  0  0  0  0  0  0  0  0
   -0.3013    2.2410   -0.8064 Cl  0  0  0  0  0  0  0  0  0  0  0  0
   -0.0307   -2.4007    0.1830 Cl  0  0  0  0  0  0  0  0  0  0  0  0
   -0.3863    0.3347    1.7644 C   0  0  0  0  0  3  0  0  0  0  0  0
    0.3382    0.5623    2.5422 H   0  0  0  0  0  0  0  0  0  0  0  0
   -1.7590    0.2902    2.2086 C   0  0  0  0  0  0  0  0  0  0  0  0
   -2.7749    0.0338    1.2555 C   0  0  0  0  0  0  0  0  0  0  0  0
   -4.1127   -0.0415    1.6354 C   0  0  0  0  0  0  0  0  0  0  0  0
   -4.4394    0.1427    2.9835 C   0  0  0  0  0  0  0  0  0  0  0  0
   -3.4564    0.4006    3.9456 C   0  0  0  0  0  0  0  0  0  0  0  0
   -2.1229    0.4734    3.5569 C   0  0  0  0  0  0  0  0  0  0  0  0
   -1.3387    0.6676    4.2838 H   0  0  0  0  0  0  0  0  0  0  0  0
   -3.7342    0.5416    4.9849 H   0  0  0  0  0  0  0  0  0  0  0  0
   -5.4824    0.0842    3.2796 H   0  0  0  0  0  0  0  0  0  0  0  0
   -4.8968   -0.2364    0.9152 H   0  0  0  0  0  0  0  0  0  0  0  0
   -2.2967   -0.1388   -0.0122 O   0  0  0  0  0  0  0  0  0  0  0  0
    5.5245   -0.1409    2.2334 H   0  0  0  0  0  0  0  0  0  0  0  0
    5.1362    1.3516    1.3754 H   0  0  0  0  0  0  0  0  0  0  0  0
    6.6684    0.2732    0.5223 N   0  0  0  0  0  0  0  0  0  0  0  0
    5.3836    0.2976    1.2429 C   0  0  0  0  0  0  0  0  0  0  0  0
    6.9219    1.1443    0.0646 H   0  0  0  0  0  0  0  0  0  0  0  0
    7.1377   -1.0427   -0.3897 S   0  0  0  0  0  0  0  0  0  0  0  0
    6.3116   -1.0810   -1.8513 N   0  0  0  0  0  0  0  0  0  0  0  0
    8.5333   -0.8078   -0.7516 O   0  0  0  0  0  0  0  0  0  0  0  0
    6.7096   -2.2238    0.3601 O   0  0  0  0  0  0  0  0  0  0  0  0
    4.5240   -1.1458   -2.8687 H   0  0  0  0  0  0  0  0  0  0  0  0
    4.6029   -2.2251   -1.4717 H   0  0  0  0  0  0  0  0  0  0  0  0
    4.8499   -1.2228   -1.8292 C   0  0  0  0  0  0  0  0  0  0  0  0
    6.6432   -0.3255   -2.4484 H   0  0  0  0  0  0  0  0  0  0  0  0
   -3.2073   -0.2530   -1.1560 C   0  0  0  0  0  0  0  0  0  0  0  0
   -4.0424    0.4245   -0.9538 H   0  0  0  0  0  0  0  0  0  0  0  0
   -3.7150   -1.6849   -1.1728 C   0  0  0  0  0  0  0  0  0  0  0  0
   -2.9049   -2.3885   -1.3900 H   0  0  0  0  0  0  0  0  0  0  0  0
   -4.1645   -1.9514   -0.2132 H   0  0  0  0  0  0  0  0  0  0  0  0
   -4.4722   -1.7818   -1.9577 H   0  0  0  0  0  0  0  0  0  0  0  0
   -2.4806    0.1338   -2.4367 C   0  0  0  0  0  0  0  0  0  0  0  0
   -3.1762    0.0758   -3.2802 H   0  0  0  0  0  0  0  0  0  0  0  0
   -2.0863    1.1526   -2.3900 H   0  0  0  0  0  0  0  0  0  0  0  0
   -1.6495   -0.5553   -2.6088 H   0  0  0  0  0  0  0  0  0  0  0  0
  1 50  1  0  0  0  0
  1 51  1  0  0  0  0
  2  1  1  1  0  0  0
  2  3  1  0  0  0  0
  3 29  1  0  0  0  0
  4  8  1  1  0  0  0
  4  3  1  0  0  0  0
  4 67  1  0  0  0  0
  5  7  1  6  0  0  0
  5  4  1  0  0  0  0
  6  5  1  0  0  0  0
  6  2  1  0  0  0  0
  9  6  1  0  0  0  0
 10  9  1  0  0  0  0
 10 21  1  0  0  0  0
 11 10  2  0  0  0  0
 12 13  2  0  0  0  0
 12 11  1  0  0  0  0
 13 14  1  0  0  0  0
 14 17  1  0  0  0  0
 14  9  2  0  0  0  0
 15 11  1  0  0  0  0
 16 13  1  0  0  0  0
 17 19  1  0  0  0  0
 18 17  1  0  0  0  0
 20 17  1  0  0  0  0
 21 24  1  0  0  0  0
 22 21  1  0  0  0  0
 23 21  1  0  0  0  0
 25 28  1  0  0  0  0
 25 12  1  0  0  0  0
 26 25  1  0  0  0  0
 27 25  1  0  0  0  0
 29 30  2  0  0  0  0
 29 34  1  0  0  0  0
 30 31  1  0  0  0  0
 31 32  1  0  0  0  0
 31 36  2  0  0  0  0
 33 36  1  0  0  0  0
 33 35  1  0  0  0  0
 34 33  2  0  0  0  0
 36 45  1  0  0  0  0
 37 34  1  0  0  0  0
 37 38  1  0  0  0  0
 39 37  1  0  0  0  0
 40 37  1  0  0  0  0
 41 42  1  0  0  0  0
 42 43  1  0  0  0  0
 42 30  1  0  0  0  0
 44 42  1  0  0  0  0
 45 46  1  0  0  0  0
 45 48  1  0  0  0  0
 45 47  1  0  0  0  0
 49  1  1  0  0  0  0
 51 53  1  0  0  0  0
 51 52  1  0  0  0  0
 53 58  1  0  0  0  0
 54 55  1  0  0  0  0
 54 53  2  0  0  0  0
 55 56  2  0  0  0  0
 56 61  1  0  0  0  0
 56 57  1  0  0  0  0
 57 60  1  0  0  0  0
 58 57  2  0  0  0  0
 58 59  1  0  0  0  0
 62 55  1  0  0  0  0
 63 54  1  0  0  0  0
 66 67  1  0  0  0  0
 67 65  1  0  0  0  0
 67 64  1  0  0  0  0
 68 66  1  0  0  0  0
 69 72  2  0  0  0  0
 69 66  1  0  0  0  0
 70 75  1  0  0  0  0
 70 69  1  0  0  0  0
 71 69  2  0  0  0  0
 73 75  1  0  0  0  0
 75 74  1  0  0  0  0
 75  5  1  0  0  0  0
 76 70  1  0  0  0  0
 77 78  1  0  0  0  0
 77 63  1  0  0  0  0
 79 77  1  0  0  0  0
 79 81  1  0  0  0  0
 80 79  1  0  0  0  0
 82 79  1  0  0  0  0
 83 85  1  0  0  0  0
 83 77  1  0  0  0  0
 84 83  1  0  0  0  0
 86 83  1  0  0  0  0
M  END
$$$$
asd
 OpenBabel07242019243D

 86 90  0  0  1  0  0  0  0  0999 V2000
    0.0000    0.0000    0.0000 Ru  0  0  0  0  0  0  0  0  0  0  0  0
    1.9819    0.0000    0.0000 C   0  0  1  0  0  3  0  0  0  0  0  0
    2.8983    0.0000    0.9983 N   0  0  0  0  0  0  0  0  0  0  0  0
    4.2330   -0.4226    0.5266 C   0  0  1  0  0  0  0  0  0  0  0  0
    4.1307   -0.1676   -0.9796 C   0  0  2  0  0  0  0  0  0  0  0  0
    2.6695   -0.1861   -1.1696 N   0  0  0  0  0  0  0  0  0  0  0  0
    4.5216    0.8263   -1.2374 H   0  0  0  0  0  0  0  0  0  0  0  0
    4.3337   -1.4991    0.6977 H   0  0  0  0  0  0  0  0  0  0  0  0
    2.0958    0.0143   -2.4718 C   0  0  0  0  0  0  0  0  0  0  0  0
    2.0670    1.3165   -3.0137 C   0  0  0  0  0  0  0  0  0  0  0  0
    1.4562    1.5038   -4.2533 C   0  0  0  0  0  0  0  0  0  0  0  0
    0.8812    0.4424   -4.9635 C   0  0  0  0  0  0  0  0  0  0  0  0
    0.9751   -0.8410   -4.4249 C   0  0  0  0  0  0  0  0  0  0  0  0
    1.5952   -1.0844   -3.1921 C   0  0  0  0  0  0  0  0  0  0  0  0
    1.4184    2.5069   -4.6717 H   0  0  0  0  0  0  0  0  0  0  0  0
    0.5694   -1.6840   -4.9793 H   0  0  0  0  0  0  0  0  0  0  0  0
    1.7674   -2.5079   -2.7259 C   0  0  0  0  0  0  0  0  0  0  0  0
    2.5866   -2.9851   -3.2795 H   0  0  0  0  0  0  0  0  0  0  0  0
    1.9879   -2.5667   -1.6619 H   0  0  0  0  0  0  0  0  0  0  0  0
    0.8619   -3.0920   -2.9156 H   0  0  0  0  0  0  0  0  0  0  0  0
    2.7051    2.4857   -2.3071 C   0  0  0  0  0  0  0  0  0  0  0  0
    2.2664    3.4259   -2.6508 H   0  0  0  0  0  0  0  0  0  0  0  0
    3.7817    2.5288   -2.5180 H   0  0  0  0  0  0  0  0  0  0  0  0
    2.5715    2.4299   -1.2260 H   0  0  0  0  0  0  0  0  0  0  0  0
    0.1730    0.6879   -6.2732 C   0  0  0  0  0  0  0  0  0  0  0  0
    0.0984   -0.2294   -6.8652 H   0  0  0  0  0  0  0  0  0  0  0  0
    0.6917    1.4445   -6.8715 H   0  0  0  0  0  0  0  0  0  0  0  0
   -0.8474    1.0546   -6.1022 H   0  0  0  0  0  0  0  0  0  0  0  0
    2.6464    0.2281    2.3851 C   0  0  0  0  0  0  0  0  0  0  0  0
    2.4783    1.5532    2.8258 C   0  0  0  0  0  0  0  0  0  0  0  0
    2.2012    1.7670    4.1788 C   0  0  0  0  0  0  0  0  0  0  0  0
    2.0530    2.7853    4.5293 H   0  0  0  0  0  0  0  0  0  0  0  0
    2.2802   -0.5958    4.6130 C   0  0  0  0  0  0  0  0  0  0  0  0
    2.5621   -0.8596    3.2688 C   0  0  0  0  0  0  0  0  0  0  0  0
    2.1935   -1.4313    5.3033 H   0  0  0  0  0  0  0  0  0  0  0  0
    2.0958    0.7069    5.0869 C   0  0  0  0  0  0  0  0  0  0  0  0
    2.7386   -2.2771    2.7870 C   0  0  0  0  0  0  0  0  0  0  0  0
    2.3637   -2.9844    3.5322 H   0  0  0  0  0  0  0  0  0  0  0  0
    3.7965   -2.5145    2.6162 H   0  0  0  0  0  0  0  0  0  0  0  0
    2.2005   -2.4454    1.8493 H   0  0  0  0  0  0  0  0  0  0  0  0
    3.3901    2.6974    1.2199 H   0  0  0  0  0  0  0  0  0  0  0  0
    2.5021    2.7109    1.8602 C   0  0  0  0  0  0  0  0  0  0  0  0
    2.4869    3.6614    2.4007 H   0  0  0  0  0  0  0  0  0  0  0  0
    1.6328    2.6791    1.1931 H   0  0  0  0  0  0  0  0  0  0  0  0
    1.8140    0.9662    6.5465 C   0  0  0  0  0  0  0  0  0  0  0  0
    1.1843    1.8516    6.6796 H   0  0  0  0  0  0  0  0  0  0  0  0
    2.7458    1.1424    7.0996 H   0  0  0  0  0  0  0  0  0  0  0  0
    1.3134    0.1122    7.0131 H   0  0  0  0  0  0  0  0  0  0  0  0
   -0.3013    2.2410   -0.8064 Cl  0  0  0  0  0  0  0  0  0  0  0  0
   -0.0307   -2.4007    0.1830 Cl  0  0  0  0  0  0  0  0  0  0  0  0
   -0.3863    0.3347    1.7644 C   0  0  0  0  0  3  0  0  0  0  0  0
    0.3382    0.5623    2.5422 H   0  0  0  0  0  0  0  0  0  0  0  0
   -1.7590    0.2902    2.2086 C   0  0  0  0  0  0  0  0  0  0  0  0
   -2.7749    0.0338    1.2555 C   0  0  0  0  0  0  0  0  0  0  0  0
   -4.1127   -0.0415    1.6354 C   0  0  0  0  0  0  0  0  0  0  0  0
   -4.4394    0.1427    2.9835 C   0  0  0  0  0  0  0  0  0  0  0  0
   -3.4564    0.4006    3.9456 C   0  0  0  0  0  0  0  0  0  0  0  0
   -2.1229    0.4734    3.5569 C   0  0  0  0  0  0  0  0  0  0  0  0
   -1.3387    0.6676    4.2838 H   0  0  0  0  0  0  0  0  0  0  0  0
   -3.7342    0.5416    4.9849 H   0  0  0  0  0  0  0  0  0  0  0  0
   -5.4824    0.0842    3.2796 H   0  0  0  0  0  0  0  0  0  0  0  0
   -4.8968   -0.2364    0.9152 H   0  0  0  0  0  0  0  0  0  0  0  0
   -2.2967   -0.1388   -0.0122 O   0  0  0  0  0  0  0  0  0  0  0  0
    5.5245   -0.1409    2.2334 H   0  0  0  0  0  0  0  0  0  0  0  0
    5.1362    1.3516    1.3754 H   0  0  0  0  0  0  0  0  0  0  0  0
    6.6684    0.2732    0.5223 N   0  0  0  0  0  0  0  0  0  0  0  0
    5.3836    0.2976    1.2429 C   0  0  0  0  0  0  0  0  0  0  0  0
    6.9219    1.1443    0.0646 H   0  0  0  0  0  0  0  0  0  0  0  0
    7.1377   -1.0427   -0.3897 S   0  0  0  0  0  0  0  0  0  0  0  0
    6.3116   -1.0810   -1.8513 N   0  0  0  0  0  0  0  0  0  0  0  0
    8.5333   -0.8078   -0.7516 O   0  0  0  0  0  0  0  0  0  0  0  0
    6.7096   -2.2238    0.3601 O   0  0  0  0  0  0  0  0  0  0  0  0
    4.5240   -1.1458   -2.8687 H   0  0  0  0  0  0  0  0  0  0  0  0
    4.6029   -2.2251   -1.4717 H   0  0  0  0  0  0  0  0  0  0  0  0
    4.8499   -1.2228   -1.8292 C   0  0  0  0  0  0  0  0  0  0  0  0
    6.6432   -0.3255   -2.4484 H   0  0  0  0  0  0  0  0  0  0  0  0
   -3.2073   -0.2530   -1.1560 C   0  0  0  0  0  0  0  0  0  0  0  0
   -2.5759   -0.3151   -2.0474 H   0  0  0  0  0  0  0  0  0  0  0  0
   -4.0179    1.0311   -1.2029 C   0  0  0  0  0  0  0  0  0  0  0  0
   -4.6745    1.1156   -0.3311 H   0  0  0  0  0  0  0  0  0  0  0  0
   -3.3632    1.9054   -1.2362 H   0  0  0  0  0  0  0  0  0  0  0  0
   -4.6424    1.0218   -2.1023 H   0  0  0  0  0  0  0  0  0  0  0  0
   -4.0735   -1.4961   -1.0058 C   0  0  0  0  0  0  0  0  0  0  0  0
   -4.7276   -1.5902   -1.8787 H   0  0  0  0  0  0  0  0  0  0  0  0
   -3.4716   -2.4060   -0.9317 H   0  0  0  0  0  0  0  0  0  0  0  0
   -4.6872   -1.4085   -0.1052 H   0  0  0  0  0  0  0  0  0  0  0  0
  1 50  1  0  0  0  0
  1 51  1  0  0  0  0
  2  1  1  1  0  0  0
  2  3  1  0  0  0  0
  3 29  1  0  0  0  0
  4  8  1  1  0  0  0
  4  3  1  0  0  0  0
  4 67  1  0  0  0  0
  5  7  1  6  0  0  0
  5  4  1  0  0  0  0
  6  5  1  0  0  0  0
  6  2  1  0  0  0  0
  9  6  1  0  0  0  0
 10  9  1  0  0  0  0
 10 21  1  0  0  0  0
 11 10  2  0  0  0  0
 12 13  2  0  0  0  0
 12 11  1  0  0  0  0
 13 14  1  0  0  0  0
 14 17  1  0  0  0  0
 14  9  2  0  0  0  0
 15 11  1  0  0  0  0
 16 13  1  0  0  0  0
 17 19  1  0  0  0  0
 18 17  1  0  0  0  0
 20 17  1  0  0  0  0
 21 24  1  0  0  0  0
 22 21  1  0  0  0  0
 23 21  1  0  0  0  0
 25 28  1  0  0  0  0
 25 12  1  0  0  0  0
 26 25  1  0  0  0  0
 27 25  1  0  0  0  0
 29 30  2  0  0  0  0
 29 34  1  0  0  0  0
 30 31  1  0  0  0  0
 31 32  1  0  0  0  0
 31 36  2  0  0  0  0
 33 36  1  0  0  0  0
 33 35  1  0  0  0  0
 34 33  2  0  0  0  0
 36 45  1  0  0  0  0
 37 34  1  0  0  0  0
 37 38  1  0  0  0  0
 39 37  1  0  0  0  0
 40 37  1  0  0  0  0
 41 42  1  0  0  0  0
 42 43  1  0  0  0  0
 42 30  1  0  0  0  0
 44 42  1  0  0  0  0
 45 46  1  0  0  0  0
 45 48  1  0  0  0  0
 45 47  1  0  0  0  0
 49  1  1  0  0  0  0
 51 53  1  0  0  0  0
 51 52  1  0  0  0  0
 53 58  1  0  0  0  0
 54 55  1  0  0  0  0
 54 53  2  0  0  0  0
 55 56  2  0  0  0  0
 56 61  1  0  0  0  0
 56 57  1  0  0  0  0
 57 60  1  0  0  0  0
 58 57  2  0  0  0  0
 58 59  1  0  0  0  0
 62 55  1  0  0  0  0
 63 54  1  0  0  0  0
 66 67  1  0  0  0  0
 67 65  1  0  0  0  0
 67 64  1  0  0  0  0
 68 66  1  0  0  0  0
 69 72  2  0  0  0  0
 69 66  1  0  0  0  0
 70 75  1  0  0  0  0
 70 69  1  0  0  0  0
 71 69  2  0  0  0  0
 73 75  1  0  0  0  0
 75 74  1  0  0  0  0
 75  5  1  0  0  0  0
 76 70  1  0  0  0  0
 77 83  1  0  0  0  0
 77 63  1  0  0  0  0
 78 77  1  0  0  0  0
 79 77  1  0  0  0  0
 79 80  1  0  0  0  0
 81 79  1  0  0  0  0
 82 79  1  0  0  0  0
 83 85  1  0  0  0  0
 83 86  1  0  0  0  0
 84 83  1  0  0  0  0
M  END
