asd
 OpenBabel07242019243D

 86 90  0  0  1  0  0  0  0  0999 V2000
    0.0000    0.0000    0.0000 Ru  0  0  0  0  0  0  0  0  0  0  0  0
    1.9816    0.0000    0.0000 C   0  0  1  0  0  3  0  0  0  0  0  0
    2.8980    0.0000    0.9987 N   0  0  0  0  0  0  0  0  0  0  0  0
    4.2270   -0.4343    0.5262 C   0  0  1  0  0  0  0  0  0  0  0  0
    4.1316   -0.1498   -0.9771 C   0  0  2  0  0  0  0  0  0  0  0  0
    2.6698   -0.1860   -1.1692 N   0  0  0  0  0  0  0  0  0  0  0  0
    4.5163    0.8502   -1.2101 H   0  0  0  0  0  0  0  0  0  0  0  0
    4.3093   -1.5153    0.6757 H   0  0  0  0  0  0  0  0  0  0  0  0
    2.0933    0.0162   -2.4700 C   0  0  0  0  0  0  0  0  0  0  0  0
    2.0576    1.3192   -3.0092 C   0  0  0  0  0  0  0  0  0  0  0  0
    1.4420    1.5060   -4.2466 C   0  0  0  0  0  0  0  0  0  0  0  0
    0.8694    0.4434   -4.9570 C   0  0  0  0  0  0  0  0  0  0  0  0
    0.9713   -0.8408   -4.4215 C   0  0  0  0  0  0  0  0  0  0  0  0
    1.5965   -1.0837   -3.1913 C   0  0  0  0  0  0  0  0  0  0  0  0
    1.3985    2.5097   -4.6630 H   0  0  0  0  0  0  0  0  0  0  0  0
    0.5680   -1.6846   -4.9765 H   0  0  0  0  0  0  0  0  0  0  0  0
    1.7798   -2.5070   -2.7289 C   0  0  0  0  0  0  0  0  0  0  0  0
    2.6071   -2.9739   -3.2795 H   0  0  0  0  0  0  0  0  0  0  0  0
    1.9952   -2.5670   -1.6639 H   0  0  0  0  0  0  0  0  0  0  0  0
    0.8814   -3.0994   -2.9263 H   0  0  0  0  0  0  0  0  0  0  0  0
    2.6941    2.4896   -2.3035 C   0  0  0  0  0  0  0  0  0  0  0  0
    2.2520    3.4289   -2.6454 H   0  0  0  0  0  0  0  0  0  0  0  0
    3.7700    2.5353   -2.5171 H   0  0  0  0  0  0  0  0  0  0  0  0
    2.5635    2.4326   -1.2221 H   0  0  0  0  0  0  0  0  0  0  0  0
    0.1557    0.6883   -6.2638 C   0  0  0  0  0  0  0  0  0  0  0  0
    0.0856   -0.2275   -6.8588 H   0  0  0  0  0  0  0  0  0  0  0  0
    0.6675    1.4504   -6.8611 H   0  0  0  0  0  0  0  0  0  0  0  0
   -0.8667    1.0472   -6.0887 H   0  0  0  0  0  0  0  0  0  0  0  0
    2.6478    0.2259    2.3859 C   0  0  0  0  0  0  0  0  0  0  0  0
    2.4831    1.5508    2.8282 C   0  0  0  0  0  0  0  0  0  0  0  0
    2.2052    1.7638    4.1813 C   0  0  0  0  0  0  0  0  0  0  0  0
    2.0594    2.7821    4.5330 H   0  0  0  0  0  0  0  0  0  0  0  0
    2.2793   -0.5998    4.6126 C   0  0  0  0  0  0  0  0  0  0  0  0
    2.5616   -0.8628    3.2685 C   0  0  0  0  0  0  0  0  0  0  0  0
    2.1908   -1.4357    5.3022 H   0  0  0  0  0  0  0  0  0  0  0  0
    2.0965    0.7028    5.0878 C   0  0  0  0  0  0  0  0  0  0  0  0
    2.7357   -2.2801    2.7852 C   0  0  0  0  0  0  0  0  0  0  0  0
    2.3656   -2.9880    3.5323 H   0  0  0  0  0  0  0  0  0  0  0  0
    3.7926   -2.5170    2.6075 H   0  0  0  0  0  0  0  0  0  0  0  0
    2.1918   -2.4482    1.8507 H   0  0  0  0  0  0  0  0  0  0  0  0
    3.4054    2.6921    1.2276 H   0  0  0  0  0  0  0  0  0  0  0  0
    2.5139    2.7090    1.8634 C   0  0  0  0  0  0  0  0  0  0  0  0
    2.4994    3.6593    2.4041 H   0  0  0  0  0  0  0  0  0  0  0  0
    1.6475    2.6801    1.1923 H   0  0  0  0  0  0  0  0  0  0  0  0
    1.8135    0.9607    6.5474 C   0  0  0  0  0  0  0  0  0  0  0  0
    1.1863    1.8478    6.6810 H   0  0  0  0  0  0  0  0  0  0  0  0
    2.7449    1.1331    7.1023 H   0  0  0  0  0  0  0  0  0  0  0  0
    1.3095    0.1076    7.0120 H   0  0  0  0  0  0  0  0  0  0  0  0
   -0.3042    2.2437   -0.7981 Cl  0  0  0  0  0  0  0  0  0  0  0  0
   -0.0298   -2.4016    0.1755 Cl  0  0  0  0  0  0  0  0  0  0  0  0
   -0.3851    0.3292    1.7657 C   0  0  0  0  0  3  0  0  0  0  0  0
    0.3399    0.5569    2.5432 H   0  0  0  0  0  0  0  0  0  0  0  0
   -1.7572    0.2802    2.2112 C   0  0  0  0  0  0  0  0  0  0  0  0
   -2.7736    0.0256    1.2580 C   0  0  0  0  0  0  0  0  0  0  0  0
   -4.1108   -0.0543    1.6390 C   0  0  0  0  0  0  0  0  0  0  0  0
   -4.4364    0.1235    2.9882 C   0  0  0  0  0  0  0  0  0  0  0  0
   -3.4531    0.3797    3.9503 C   0  0  0  0  0  0  0  0  0  0  0  0
   -2.1202    0.4573    3.5605 C   0  0  0  0  0  0  0  0  0  0  0  0
   -1.3357    0.6505    4.2874 H   0  0  0  0  0  0  0  0  0  0  0  0
   -3.7300    0.5158    4.9905 H   0  0  0  0  0  0  0  0  0  0  0  0
   -5.4790    0.0612    3.2853 H   0  0  0  0  0  0  0  0  0  0  0  0
   -4.8953   -0.2479    0.9189 H   0  0  0  0  0  0  0  0  0  0  0  0
   -2.2965   -0.1407   -0.0108 O   0  0  0  0  0  0  0  0  0  0  0  0
    5.5968   -0.2465    2.1938 H   0  0  0  0  0  0  0  0  0  0  0  0
    5.1257    1.2972    1.4575 H   0  0  0  0  0  0  0  0  0  0  0  0
    6.5713    0.3200    0.3732 N   0  0  0  0  0  0  0  0  0  0  0  0
    5.3886    0.2591    1.2452 C   0  0  0  0  0  0  0  0  0  0  0  0
    7.3640    0.8246    0.7618 H   0  0  0  0  0  0  0  0  0  0  0  0
    7.1125   -1.0626   -0.3907 S   0  0  0  0  0  0  0  0  0  0  0  0
    6.3097   -0.9204   -1.8718 N   0  0  0  0  0  0  0  0  0  0  0  0
    8.5352   -0.8821   -0.6802 O   0  0  0  0  0  0  0  0  0  0  0  0
    6.6542   -2.2545    0.3403 O   0  0  0  0  0  0  0  0  0  0  0  0
    4.5248   -1.0557   -2.8888 H   0  0  0  0  0  0  0  0  0  0  0  0
    4.6101   -2.1889   -1.5244 H   0  0  0  0  0  0  0  0  0  0  0  0
    4.8561   -1.1721   -1.8544 C   0  0  0  0  0  0  0  0  0  0  0  0
    6.7865   -1.5338   -2.5334 H   0  0  0  0  0  0  0  0  0  0  0  0
   -3.2079   -0.2520   -1.1543 C   0  0  0  0  0  0  0  0  0  0  0  0
   -3.9747   -0.9782   -0.8675 H   0  0  0  0  0  0  0  0  0  0  0  0
   -2.3961   -0.8091   -2.3113 C   0  0  0  0  0  0  0  0  0  0  0  0
   -1.6292   -0.0979   -2.6343 H   0  0  0  0  0  0  0  0  0  0  0  0
   -1.9102   -1.7470   -2.0317 H   0  0  0  0  0  0  0  0  0  0  0  0
   -3.0673   -0.9958   -3.1560 H   0  0  0  0  0  0  0  0  0  0  0  0
   -3.8220    1.1071   -1.4605 C   0  0  0  0  0  0  0  0  0  0  0  0
   -4.5242    1.0083   -2.2947 H   0  0  0  0  0  0  0  0  0  0  0  0
   -4.3669    1.5110   -0.6028 H   0  0  0  0  0  0  0  0  0  0  0  0
   -3.0330    1.8117   -1.7369 H   0  0  0  0  0  0  0  0  0  0  0  0
  1 50  1  0  0  0  0
  1 51  1  0  0  0  0
  2  1  1  1  0  0  0
  2  3  1  0  0  0  0
  3 29  1  0  0  0  0
  4  8  1  1  0  0  0
  4  3  1  0  0  0  0
  4 67  1  0  0  0  0
  5  7  1  6  0  0  0
  5  4  1  0  0  0  0
  6  5  1  0  0  0  0
  6  2  1  0  0  0  0
  9  6  1  0  0  0  0
 10  9  1  0  0  0  0
 10 21  1  0  0  0  0
 11 10  2  0  0  0  0
 12 13  2  0  0  0  0
 12 11  1  0  0  0  0
 13 14  1  0  0  0  0
 14 17  1  0  0  0  0
 14  9  2  0  0  0  0
 15 11  1  0  0  0  0
 16 13  1  0  0  0  0
 17 19  1  0  0  0  0
 18 17  1  0  0  0  0
 20 17  1  0  0  0  0
 21 24  1  0  0  0  0
 22 21  1  0  0  0  0
 23 21  1  0  0  0  0
 25 28  1  0  0  0  0
 25 12  1  0  0  0  0
 26 25  1  0  0  0  0
 27 25  1  0  0  0  0
 29 30  2  0  0  0  0
 29 34  1  0  0  0  0
 30 31  1  0  0  0  0
 31 32  1  0  0  0  0
 31 36  2  0  0  0  0
 33 36  1  0  0  0  0
 33 35  1  0  0  0  0
 34 33  2  0  0  0  0
 36 45  1  0  0  0  0
 37 34  1  0  0  0  0
 37 38  1  0  0  0  0
 39 37  1  0  0  0  0
 40 37  1  0  0  0  0
 41 42  1  0  0  0  0
 42 43  1  0  0  0  0
 42 30  1  0  0  0  0
 44 42  1  0  0  0  0
 45 46  1  0  0  0  0
 45 48  1  0  0  0  0
 45 47  1  0  0  0  0
 49  1  1  0  0  0  0
 51 53  1  0  0  0  0
 51 52  1  0  0  0  0
 53 58  1  0  0  0  0
 54 55  1  0  0  0  0
 54 53  2  0  0  0  0
 55 56  2  0  0  0  0
 56 61  1  0  0  0  0
 56 57  1  0  0  0  0
 57 60  1  0  0  0  0
 58 57  2  0  0  0  0
 58 59  1  0  0  0  0
 62 55  1  0  0  0  0
 63 54  1  0  0  0  0
 66 68  1  0  0  0  0
 66 67  1  0  0  0  0
 67 65  1  0  0  0  0
 67 64  1  0  0  0  0
 69 72  2  0  0  0  0
 69 66  1  0  0  0  0
 70 75  1  0  0  0  0
 70 69  1  0  0  0  0
 71 69  2  0  0  0  0
 73 75  1  0  0  0  0
 75 74  1  0  0  0  0
 75  5  1  0  0  0  0
 76 70  1  0  0  0  0
 77 78  1  0  0  0  0
 77 63  1  0  0  0  0
 79 81  1  0  0  0  0
 79 77  1  0  0  0  0
 80 79  1  0  0  0  0
 82 79  1  0  0  0  0
 83 77  1  0  0  0  0
 83 85  1  0  0  0  0
 84 83  1  0  0  0  0
 86 83  1  0  0  0  0
M  END
