asd
 OpenBabel07242019243D

 86 90  0  0  1  0  0  0  0  0999 V2000
    0.0000    0.0000    0.0000 Ru  0  0  0  0  0  0  0  0  0  0  0  0
    1.9818    0.0000    0.0000 C   0  0  1  0  0  3  0  0  0  0  0  0
    2.8987    0.0000    0.9982 N   0  0  0  0  0  0  0  0  0  0  0  0
    4.2284   -0.4370    0.5273 C   0  0  1  0  0  0  0  0  0  0  0  0
    4.1301   -0.1670   -0.9781 C   0  0  2  0  0  0  0  0  0  0  0  0
    2.6688   -0.1879   -1.1691 N   0  0  0  0  0  0  0  0  0  0  0  0
    4.5212    0.8296   -1.2211 H   0  0  0  0  0  0  0  0  0  0  0  0
    4.3112   -1.5165    0.6868 H   0  0  0  0  0  0  0  0  0  0  0  0
    2.0943    0.0141   -2.4709 C   0  0  0  0  0  0  0  0  0  0  0  0
    2.0640    1.3168   -3.0111 C   0  0  0  0  0  0  0  0  0  0  0  0
    1.4519    1.5050   -4.2498 C   0  0  0  0  0  0  0  0  0  0  0  0
    0.8770    0.4438   -4.9606 C   0  0  0  0  0  0  0  0  0  0  0  0
    0.9729   -0.8402   -4.4236 C   0  0  0  0  0  0  0  0  0  0  0  0
    1.5947   -1.0843   -3.1919 C   0  0  0  0  0  0  0  0  0  0  0  0
    1.4127    2.5085   -4.6671 H   0  0  0  0  0  0  0  0  0  0  0  0
    0.5674   -1.6830   -4.9786 H   0  0  0  0  0  0  0  0  0  0  0  0
    1.7705   -2.5079   -2.7276 C   0  0  0  0  0  0  0  0  0  0  0  0
    2.5955   -2.9799   -3.2771 H   0  0  0  0  0  0  0  0  0  0  0  0
    1.9846   -2.5680   -1.6623 H   0  0  0  0  0  0  0  0  0  0  0  0
    0.8690   -3.0958   -2.9243 H   0  0  0  0  0  0  0  0  0  0  0  0
    2.7027    2.4854   -2.3041 C   0  0  0  0  0  0  0  0  0  0  0  0
    2.2639    3.4260   -2.6468 H   0  0  0  0  0  0  0  0  0  0  0  0
    3.7791    2.5283   -2.5158 H   0  0  0  0  0  0  0  0  0  0  0  0
    2.5698    2.4288   -1.2229 H   0  0  0  0  0  0  0  0  0  0  0  0
    0.1666    0.6902   -6.2689 C   0  0  0  0  0  0  0  0  0  0  0  0
    0.0946   -0.2256   -6.8635 H   0  0  0  0  0  0  0  0  0  0  0  0
    0.6820    1.4503   -6.8657 H   0  0  0  0  0  0  0  0  0  0  0  0
   -0.8550    1.0526   -6.0960 H   0  0  0  0  0  0  0  0  0  0  0  0
    2.6470    0.2276    2.3850 C   0  0  0  0  0  0  0  0  0  0  0  0
    2.4814    1.5529    2.8257 C   0  0  0  0  0  0  0  0  0  0  0  0
    2.2029    1.7674    4.1784 C   0  0  0  0  0  0  0  0  0  0  0  0
    2.0565    2.7860    4.5287 H   0  0  0  0  0  0  0  0  0  0  0  0
    2.2771   -0.5955    4.6126 C   0  0  0  0  0  0  0  0  0  0  0  0
    2.5601   -0.8601    3.2689 C   0  0  0  0  0  0  0  0  0  0  0  0
    2.1885   -1.4306    5.3030 H   0  0  0  0  0  0  0  0  0  0  0  0
    2.0942    0.7077    5.0861 C   0  0  0  0  0  0  0  0  0  0  0  0
    2.7352   -2.2780    2.7878 C   0  0  0  0  0  0  0  0  0  0  0  0
    2.3599   -2.9848    3.5334 H   0  0  0  0  0  0  0  0  0  0  0  0
    3.7929   -2.5163    2.6168 H   0  0  0  0  0  0  0  0  0  0  0  0
    2.1963   -2.4465    1.8505 H   0  0  0  0  0  0  0  0  0  0  0  0
    3.4009    2.6921    1.2219 H   0  0  0  0  0  0  0  0  0  0  0  0
    2.5111    2.7102    1.8598 C   0  0  0  0  0  0  0  0  0  0  0  0
    2.4985    3.6609    2.3999 H   0  0  0  0  0  0  0  0  0  0  0  0
    1.6431    2.6813    1.1908 H   0  0  0  0  0  0  0  0  0  0  0  0
    1.8108    0.9674    6.5453 C   0  0  0  0  0  0  0  0  0  0  0  0
    1.1834    1.8545    6.6778 H   0  0  0  0  0  0  0  0  0  0  0  0
    2.7422    1.1404    7.1000 H   0  0  0  0  0  0  0  0  0  0  0  0
    1.3067    0.1148    7.0108 H   0  0  0  0  0  0  0  0  0  0  0  0
   -0.3034    2.2414   -0.8047 Cl  0  0  0  0  0  0  0  0  0  0  0  0
   -0.0303   -2.4010    0.1818 Cl  0  0  0  0  0  0  0  0  0  0  0  0
   -0.3866    0.3334    1.7644 C   0  0  0  0  0  3  0  0  0  0  0  0
    0.3373    0.5649    2.5418 H   0  0  0  0  0  0  0  0  0  0  0  0
   -1.7592    0.2828    2.2087 C   0  0  0  0  0  0  0  0  0  0  0  0
   -2.7742    0.0246    1.2550 C   0  0  0  0  0  0  0  0  0  0  0  0
   -4.1116   -0.0576    1.6349 C   0  0  0  0  0  0  0  0  0  0  0  0
   -4.4385    0.1213    2.9837 C   0  0  0  0  0  0  0  0  0  0  0  0
   -3.4564    0.3807    3.9462 C   0  0  0  0  0  0  0  0  0  0  0  0
   -2.1234    0.4606    3.5571 C   0  0  0  0  0  0  0  0  0  0  0  0
   -1.3398    0.6563    4.2844 H   0  0  0  0  0  0  0  0  0  0  0  0
   -3.7343    0.5175    4.9860 H   0  0  0  0  0  0  0  0  0  0  0  0
   -5.4811    0.0570    3.2801 H   0  0  0  0  0  0  0  0  0  0  0  0
   -4.8950   -0.2539    0.9144 H   0  0  0  0  0  0  0  0  0  0  0  0
   -2.2956   -0.1424   -0.0131 O   0  0  0  0  0  0  0  0  0  0  0  0
    5.5503   -0.2190    2.2212 H   0  0  0  0  0  0  0  0  0  0  0  0
    5.1273    1.3088    1.4269 H   0  0  0  0  0  0  0  0  0  0  0  0
    6.6055    0.2798    0.4297 N   0  0  0  0  0  0  0  0  0  0  0  0
    5.3829    0.2616    1.2516 C   0  0  0  0  0  0  0  0  0  0  0  0
    7.4056    0.6925    0.9046 H   0  0  0  0  0  0  0  0  0  0  0  0
    7.1052   -1.1177   -0.3636 S   0  0  0  0  0  0  0  0  0  0  0  0
    6.3173   -1.0762   -1.8390 N   0  0  0  0  0  0  0  0  0  0  0  0
    8.5278   -0.9215   -0.6370 O   0  0  0  0  0  0  0  0  0  0  0  0
    6.6198   -2.3184    0.3244 O   0  0  0  0  0  0  0  0  0  0  0  0
    4.5402   -1.1154   -2.8791 H   0  0  0  0  0  0  0  0  0  0  0  0
    4.5984   -2.2202   -1.5008 H   0  0  0  0  0  0  0  0  0  0  0  0
    4.8517   -1.2125   -1.8368 C   0  0  0  0  0  0  0  0  0  0  0  0
    6.6366   -0.2573   -2.3552 H   0  0  0  0  0  0  0  0  0  0  0  0
   -3.2054   -0.2584   -1.1574 C   0  0  0  0  0  0  0  0  0  0  0  0
   -3.9711   -0.9853   -0.8698 H   0  0  0  0  0  0  0  0  0  0  0  0
   -2.3911   -0.8168   -2.3123 C   0  0  0  0  0  0  0  0  0  0  0  0
   -1.6243   -0.1055   -2.6352 H   0  0  0  0  0  0  0  0  0  0  0  0
   -1.9050   -1.7539   -2.0305 H   0  0  0  0  0  0  0  0  0  0  0  0
   -3.0610   -1.0055   -3.1576 H   0  0  0  0  0  0  0  0  0  0  0  0
   -3.8214    1.0989   -1.4675 C   0  0  0  0  0  0  0  0  0  0  0  0
   -4.5222    0.9972   -2.3026 H   0  0  0  0  0  0  0  0  0  0  0  0
   -4.3681    1.5036   -0.6115 H   0  0  0  0  0  0  0  0  0  0  0  0
   -3.0331    1.8042   -1.7445 H   0  0  0  0  0  0  0  0  0  0  0  0
  1 50  1  0  0  0  0
  1 51  1  0  0  0  0
  2  1  1  1  0  0  0
  2  3  1  0  0  0  0
  3 29  1  0  0  0  0
  4  8  1  1  0  0  0
  4  3  1  0  0  0  0
  4 67  1  0  0  0  0
  5  7  1  6  0  0  0
  5  4  1  0  0  0  0
  6  5  1  0  0  0  0
  6  2  1  0  0  0  0
  9  6  1  0  0  0  0
 10  9  1  0  0  0  0
 10 21  1  0  0  0  0
 11 10  2  0  0  0  0
 12 13  2  0  0  0  0
 12 11  1  0  0  0  0
 13 14  1  0  0  0  0
 14 17  1  0  0  0  0
 14  9  2  0  0  0  0
 15 11  1  0  0  0  0
 16 13  1  0  0  0  0
 17 19  1  0  0  0  0
 18 17  1  0  0  0  0
 20 17  1  0  0  0  0
 21 24  1  0  0  0  0
 22 21  1  0  0  0  0
 23 21  1  0  0  0  0
 25 28  1  0  0  0  0
 25 12  1  0  0  0  0
 26 25  1  0  0  0  0
 27 25  1  0  0  0  0
 29 30  2  0  0  0  0
 29 34  1  0  0  0  0
 30 31  1  0  0  0  0
 31 32  1  0  0  0  0
 31 36  2  0  0  0  0
 33 36  1  0  0  0  0
 33 35  1  0  0  0  0
 34 33  2  0  0  0  0
 36 45  1  0  0  0  0
 37 34  1  0  0  0  0
 37 38  1  0  0  0  0
 39 37  1  0  0  0  0
 40 37  1  0  0  0  0
 41 42  1  0  0  0  0
 42 43  1  0  0  0  0
 42 30  1  0  0  0  0
 44 42  1  0  0  0  0
 45 46  1  0  0  0  0
 45 48  1  0  0  0  0
 45 47  1  0  0  0  0
 49  1  1  0  0  0  0
 51 53  1  0  0  0  0
 51 52  1  0  0  0  0
 53 58  1  0  0  0  0
 54 55  1  0  0  0  0
 54 53  2  0  0  0  0
 55 56  2  0  0  0  0
 56 61  1  0  0  0  0
 56 57  1  0  0  0  0
 57 60  1  0  0  0  0
 58 57  2  0  0  0  0
 58 59  1  0  0  0  0
 62 55  1  0  0  0  0
 63 54  1  0  0  0  0
 66 68  1  0  0  0  0
 66 67  1  0  0  0  0
 67 65  1  0  0  0  0
 67 64  1  0  0  0  0
 69 72  2  0  0  0  0
 69 66  1  0  0  0  0
 70 75  1  0  0  0  0
 70 69  1  0  0  0  0
 71 69  2  0  0  0  0
 73 75  1  0  0  0  0
 75 74  1  0  0  0  0
 75  5  1  0  0  0  0
 76 70  1  0  0  0  0
 77 78  1  0  0  0  0
 77 63  1  0  0  0  0
 79 81  1  0  0  0  0
 79 77  1  0  0  0  0
 80 79  1  0  0  0  0
 82 79  1  0  0  0  0
 83 77  1  0  0  0  0
 83 85  1  0  0  0  0
 84 83  1  0  0  0  0
 86 83  1  0  0  0  0
M  END
$$$$
asd
 OpenBabel07242019243D

 86 90  0  0  1  0  0  0  0  0999 V2000
    0.0000    0.0000    0.0000 Ru  0  0  0  0  0  0  0  0  0  0  0  0
    1.9818    0.0000    0.0000 C   0  0  1  0  0  3  0  0  0  0  0  0
    2.8987    0.0000    0.9982 N   0  0  0  0  0  0  0  0  0  0  0  0
    4.2284   -0.4370    0.5273 C   0  0  1  0  0  0  0  0  0  0  0  0
    4.1301   -0.1670   -0.9781 C   0  0  2  0  0  0  0  0  0  0  0  0
    2.6688   -0.1879   -1.1691 N   0  0  0  0  0  0  0  0  0  0  0  0
    4.5212    0.8296   -1.2211 H   0  0  0  0  0  0  0  0  0  0  0  0
    4.3112   -1.5165    0.6868 H   0  0  0  0  0  0  0  0  0  0  0  0
    2.0943    0.0141   -2.4709 C   0  0  0  0  0  0  0  0  0  0  0  0
    2.0640    1.3168   -3.0111 C   0  0  0  0  0  0  0  0  0  0  0  0
    1.4519    1.5050   -4.2498 C   0  0  0  0  0  0  0  0  0  0  0  0
    0.8770    0.4438   -4.9606 C   0  0  0  0  0  0  0  0  0  0  0  0
    0.9729   -0.8402   -4.4236 C   0  0  0  0  0  0  0  0  0  0  0  0
    1.5947   -1.0843   -3.1919 C   0  0  0  0  0  0  0  0  0  0  0  0
    1.4127    2.5085   -4.6671 H   0  0  0  0  0  0  0  0  0  0  0  0
    0.5674   -1.6830   -4.9786 H   0  0  0  0  0  0  0  0  0  0  0  0
    1.7705   -2.5079   -2.7276 C   0  0  0  0  0  0  0  0  0  0  0  0
    2.5955   -2.9799   -3.2771 H   0  0  0  0  0  0  0  0  0  0  0  0
    1.9846   -2.5680   -1.6623 H   0  0  0  0  0  0  0  0  0  0  0  0
    0.8690   -3.0958   -2.9243 H   0  0  0  0  0  0  0  0  0  0  0  0
    2.7027    2.4854   -2.3041 C   0  0  0  0  0  0  0  0  0  0  0  0
    2.2639    3.4260   -2.6468 H   0  0  0  0  0  0  0  0  0  0  0  0
    3.7791    2.5283   -2.5158 H   0  0  0  0  0  0  0  0  0  0  0  0
    2.5698    2.4288   -1.2229 H   0  0  0  0  0  0  0  0  0  0  0  0
    0.1666    0.6902   -6.2689 C   0  0  0  0  0  0  0  0  0  0  0  0
    0.0946   -0.2256   -6.8635 H   0  0  0  0  0  0  0  0  0  0  0  0
    0.6820    1.4503   -6.8657 H   0  0  0  0  0  0  0  0  0  0  0  0
   -0.8550    1.0526   -6.0960 H   0  0  0  0  0  0  0  0  0  0  0  0
    2.6470    0.2276    2.3850 C   0  0  0  0  0  0  0  0  0  0  0  0
    2.4814    1.5529    2.8257 C   0  0  0  0  0  0  0  0  0  0  0  0
    2.2029    1.7674    4.1784 C   0  0  0  0  0  0  0  0  0  0  0  0
    2.0565    2.7860    4.5287 H   0  0  0  0  0  0  0  0  0  0  0  0
    2.2771   -0.5955    4.6126 C   0  0  0  0  0  0  0  0  0  0  0  0
    2.5601   -0.8601    3.2689 C   0  0  0  0  0  0  0  0  0  0  0  0
    2.1885   -1.4306    5.3030 H   0  0  0  0  0  0  0  0  0  0  0  0
    2.0942    0.7077    5.0861 C   0  0  0  0  0  0  0  0  0  0  0  0
    2.7352   -2.2780    2.7878 C   0  0  0  0  0  0  0  0  0  0  0  0
    2.3599   -2.9848    3.5334 H   0  0  0  0  0  0  0  0  0  0  0  0
    3.7929   -2.5163    2.6168 H   0  0  0  0  0  0  0  0  0  0  0  0
    2.1963   -2.4465    1.8505 H   0  0  0  0  0  0  0  0  0  0  0  0
    3.4009    2.6921    1.2219 H   0  0  0  0  0  0  0  0  0  0  0  0
    2.5111    2.7102    1.8598 C   0  0  0  0  0  0  0  0  0  0  0  0
    2.4985    3.6609    2.3999 H   0  0  0  0  0  0  0  0  0  0  0  0
    1.6431    2.6813    1.1908 H   0  0  0  0  0  0  0  0  0  0  0  0
    1.8108    0.9674    6.5453 C   0  0  0  0  0  0  0  0  0  0  0  0
    1.1834    1.8545    6.6778 H   0  0  0  0  0  0  0  0  0  0  0  0
    2.7422    1.1404    7.1000 H   0  0  0  0  0  0  0  0  0  0  0  0
    1.3067    0.1148    7.0108 H   0  0  0  0  0  0  0  0  0  0  0  0
   -0.3034    2.2414   -0.8047 Cl  0  0  0  0  0  0  0  0  0  0  0  0
   -0.0303   -2.4010    0.1818 Cl  0  0  0  0  0  0  0  0  0  0  0  0
   -0.3866    0.3334    1.7644 C   0  0  0  0  0  3  0  0  0  0  0  0
    0.3373    0.5649    2.5418 H   0  0  0  0  0  0  0  0  0  0  0  0
   -1.7592    0.2828    2.2087 C   0  0  0  0  0  0  0  0  0  0  0  0
   -2.7742    0.0246    1.2550 C   0  0  0  0  0  0  0  0  0  0  0  0
   -4.1116   -0.0576    1.6349 C   0  0  0  0  0  0  0  0  0  0  0  0
   -4.4385    0.1213    2.9837 C   0  0  0  0  0  0  0  0  0  0  0  0
   -3.4564    0.3807    3.9462 C   0  0  0  0  0  0  0  0  0  0  0  0
   -2.1234    0.4606    3.5571 C   0  0  0  0  0  0  0  0  0  0  0  0
   -1.3398    0.6563    4.2844 H   0  0  0  0  0  0  0  0  0  0  0  0
   -3.7343    0.5175    4.9860 H   0  0  0  0  0  0  0  0  0  0  0  0
   -5.4811    0.0570    3.2801 H   0  0  0  0  0  0  0  0  0  0  0  0
   -4.8950   -0.2539    0.9144 H   0  0  0  0  0  0  0  0  0  0  0  0
   -2.2956   -0.1424   -0.0131 O   0  0  0  0  0  0  0  0  0  0  0  0
    5.5503   -0.2190    2.2212 H   0  0  0  0  0  0  0  0  0  0  0  0
    5.1273    1.3088    1.4269 H   0  0  0  0  0  0  0  0  0  0  0  0
    6.6055    0.2798    0.4297 N   0  0  0  0  0  0  0  0  0  0  0  0
    5.3829    0.2616    1.2516 C   0  0  0  0  0  0  0  0  0  0  0  0
    7.4056    0.6925    0.9046 H   0  0  0  0  0  0  0  0  0  0  0  0
    7.1052   -1.1177   -0.3636 S   0  0  0  0  0  0  0  0  0  0  0  0
    6.3173   -1.0762   -1.8390 N   0  0  0  0  0  0  0  0  0  0  0  0
    8.5278   -0.9215   -0.6370 O   0  0  0  0  0  0  0  0  0  0  0  0
    6.6198   -2.3184    0.3244 O   0  0  0  0  0  0  0  0  0  0  0  0
    4.5402   -1.1154   -2.8791 H   0  0  0  0  0  0  0  0  0  0  0  0
    4.5984   -2.2202   -1.5008 H   0  0  0  0  0  0  0  0  0  0  0  0
    4.8517   -1.2125   -1.8368 C   0  0  0  0  0  0  0  0  0  0  0  0
    6.6366   -0.2573   -2.3552 H   0  0  0  0  0  0  0  0  0  0  0  0
   -3.2054   -0.2584   -1.1574 C   0  0  0  0  0  0  0  0  0  0  0  0
   -4.0432    0.4154   -0.9544 H   0  0  0  0  0  0  0  0  0  0  0  0
   -3.7073   -1.6924   -1.1771 C   0  0  0  0  0  0  0  0  0  0  0  0
   -2.8941   -2.3926   -1.3938 H   0  0  0  0  0  0  0  0  0  0  0  0
   -4.1573   -1.9620   -0.2187 H   0  0  0  0  0  0  0  0  0  0  0  0
   -4.4628   -1.7911   -1.9635 H   0  0  0  0  0  0  0  0  0  0  0  0
   -2.4791    0.1336   -2.4368 C   0  0  0  0  0  0  0  0  0  0  0  0
   -3.1736    0.0741   -3.2812 H   0  0  0  0  0  0  0  0  0  0  0  0
   -2.0891    1.1538   -2.3879 H   0  0  0  0  0  0  0  0  0  0  0  0
   -1.6450   -0.5521   -2.6092 H   0  0  0  0  0  0  0  0  0  0  0  0
  1 50  1  0  0  0  0
  1 51  1  0  0  0  0
  2  1  1  1  0  0  0
  2  3  1  0  0  0  0
  3 29  1  0  0  0  0
  4  8  1  1  0  0  0
  4  3  1  0  0  0  0
  4 67  1  0  0  0  0
  5  7  1  6  0  0  0
  5  4  1  0  0  0  0
  6  5  1  0  0  0  0
  6  2  1  0  0  0  0
  9  6  1  0  0  0  0
 10  9  1  0  0  0  0
 10 21  1  0  0  0  0
 11 10  2  0  0  0  0
 12 13  2  0  0  0  0
 12 11  1  0  0  0  0
 13 14  1  0  0  0  0
 14 17  1  0  0  0  0
 14  9  2  0  0  0  0
 15 11  1  0  0  0  0
 16 13  1  0  0  0  0
 17 19  1  0  0  0  0
 18 17  1  0  0  0  0
 20 17  1  0  0  0  0
 21 24  1  0  0  0  0
 22 21  1  0  0  0  0
 23 21  1  0  0  0  0
 25 28  1  0  0  0  0
 25 12  1  0  0  0  0
 26 25  1  0  0  0  0
 27 25  1  0  0  0  0
 29 30  2  0  0  0  0
 29 34  1  0  0  0  0
 30 31  1  0  0  0  0
 31 32  1  0  0  0  0
 31 36  2  0  0  0  0
 33 36  1  0  0  0  0
 33 35  1  0  0  0  0
 34 33  2  0  0  0  0
 36 45  1  0  0  0  0
 37 34  1  0  0  0  0
 37 38  1  0  0  0  0
 39 37  1  0  0  0  0
 40 37  1  0  0  0  0
 41 42  1  0  0  0  0
 42 43  1  0  0  0  0
 42 30  1  0  0  0  0
 44 42  1  0  0  0  0
 45 46  1  0  0  0  0
 45 48  1  0  0  0  0
 45 47  1  0  0  0  0
 49  1  1  0  0  0  0
 51 53  1  0  0  0  0
 51 52  1  0  0  0  0
 53 58  1  0  0  0  0
 54 55  1  0  0  0  0
 54 53  2  0  0  0  0
 55 56  2  0  0  0  0
 56 61  1  0  0  0  0
 56 57  1  0  0  0  0
 57 60  1  0  0  0  0
 58 57  2  0  0  0  0
 58 59  1  0  0  0  0
 62 55  1  0  0  0  0
 63 54  1  0  0  0  0
 66 68  1  0  0  0  0
 66 67  1  0  0  0  0
 67 65  1  0  0  0  0
 67 64  1  0  0  0  0
 69 72  2  0  0  0  0
 69 66  1  0  0  0  0
 70 75  1  0  0  0  0
 70 69  1  0  0  0  0
 71 69  2  0  0  0  0
 73 75  1  0  0  0  0
 75 74  1  0  0  0  0
 75  5  1  0  0  0  0
 76 70  1  0  0  0  0
 77 78  1  0  0  0  0
 77 63  1  0  0  0  0
 79 77  1  0  0  0  0
 79 81  1  0  0  0  0
 80 79  1  0  0  0  0
 82 79  1  0  0  0  0
 83 85  1  0  0  0  0
 83 77  1  0  0  0  0
 84 83  1  0  0  0  0
 86 83  1  0  0  0  0
M  END
$$$$
asd
 OpenBabel07242019243D

 86 90  0  0  1  0  0  0  0  0999 V2000
    0.0000    0.0000    0.0000 Ru  0  0  0  0  0  0  0  0  0  0  0  0
    1.9818    0.0000    0.0000 C   0  0  1  0  0  3  0  0  0  0  0  0
    2.8987    0.0000    0.9982 N   0  0  0  0  0  0  0  0  0  0  0  0
    4.2284   -0.4370    0.5273 C   0  0  1  0  0  0  0  0  0  0  0  0
    4.1301   -0.1670   -0.9781 C   0  0  2  0  0  0  0  0  0  0  0  0
    2.6688   -0.1879   -1.1691 N   0  0  0  0  0  0  0  0  0  0  0  0
    4.5212    0.8296   -1.2211 H   0  0  0  0  0  0  0  0  0  0  0  0
    4.3112   -1.5165    0.6868 H   0  0  0  0  0  0  0  0  0  0  0  0
    2.0943    0.0141   -2.4709 C   0  0  0  0  0  0  0  0  0  0  0  0
    2.0640    1.3168   -3.0111 C   0  0  0  0  0  0  0  0  0  0  0  0
    1.4519    1.5050   -4.2498 C   0  0  0  0  0  0  0  0  0  0  0  0
    0.8770    0.4438   -4.9606 C   0  0  0  0  0  0  0  0  0  0  0  0
    0.9729   -0.8402   -4.4236 C   0  0  0  0  0  0  0  0  0  0  0  0
    1.5947   -1.0843   -3.1919 C   0  0  0  0  0  0  0  0  0  0  0  0
    1.4127    2.5085   -4.6671 H   0  0  0  0  0  0  0  0  0  0  0  0
    0.5674   -1.6830   -4.9786 H   0  0  0  0  0  0  0  0  0  0  0  0
    1.7705   -2.5079   -2.7276 C   0  0  0  0  0  0  0  0  0  0  0  0
    2.5955   -2.9799   -3.2771 H   0  0  0  0  0  0  0  0  0  0  0  0
    1.9846   -2.5680   -1.6623 H   0  0  0  0  0  0  0  0  0  0  0  0
    0.8690   -3.0958   -2.9243 H   0  0  0  0  0  0  0  0  0  0  0  0
    2.7027    2.4854   -2.3041 C   0  0  0  0  0  0  0  0  0  0  0  0
    2.2639    3.4260   -2.6468 H   0  0  0  0  0  0  0  0  0  0  0  0
    3.7791    2.5283   -2.5158 H   0  0  0  0  0  0  0  0  0  0  0  0
    2.5698    2.4288   -1.2229 H   0  0  0  0  0  0  0  0  0  0  0  0
    0.1666    0.6902   -6.2689 C   0  0  0  0  0  0  0  0  0  0  0  0
    0.0946   -0.2256   -6.8635 H   0  0  0  0  0  0  0  0  0  0  0  0
    0.6820    1.4503   -6.8657 H   0  0  0  0  0  0  0  0  0  0  0  0
   -0.8550    1.0526   -6.0960 H   0  0  0  0  0  0  0  0  0  0  0  0
    2.6470    0.2276    2.3850 C   0  0  0  0  0  0  0  0  0  0  0  0
    2.4814    1.5529    2.8257 C   0  0  0  0  0  0  0  0  0  0  0  0
    2.2029    1.7674    4.1784 C   0  0  0  0  0  0  0  0  0  0  0  0
    2.0565    2.7860    4.5287 H   0  0  0  0  0  0  0  0  0  0  0  0
    2.2771   -0.5955    4.6126 C   0  0  0  0  0  0  0  0  0  0  0  0
    2.5601   -0.8601    3.2689 C   0  0  0  0  0  0  0  0  0  0  0  0
    2.1885   -1.4306    5.3030 H   0  0  0  0  0  0  0  0  0  0  0  0
    2.0942    0.7077    5.0861 C   0  0  0  0  0  0  0  0  0  0  0  0
    2.7352   -2.2780    2.7878 C   0  0  0  0  0  0  0  0  0  0  0  0
    2.3599   -2.9848    3.5334 H   0  0  0  0  0  0  0  0  0  0  0  0
    3.7929   -2.5163    2.6168 H   0  0  0  0  0  0  0  0  0  0  0  0
    2.1963   -2.4465    1.8505 H   0  0  0  0  0  0  0  0  0  0  0  0
    3.4009    2.6921    1.2219 H   0  0  0  0  0  0  0  0  0  0  0  0
    2.5111    2.7102    1.8598 C   0  0  0  0  0  0  0  0  0  0  0  0
    2.4985    3.6609    2.3999 H   0  0  0  0  0  0  0  0  0  0  0  0
    1.6431    2.6813    1.1908 H   0  0  0  0  0  0  0  0  0  0  0  0
    1.8108    0.9674    6.5453 C   0  0  0  0  0  0  0  0  0  0  0  0
    1.1834    1.8545    6.6778 H   0  0  0  0  0  0  0  0  0  0  0  0
    2.7422    1.1404    7.1000 H   0  0  0  0  0  0  0  0  0  0  0  0
    1.3067    0.1148    7.0108 H   0  0  0  0  0  0  0  0  0  0  0  0
   -0.3034    2.2414   -0.8047 Cl  0  0  0  0  0  0  0  0  0  0  0  0
   -0.0303   -2.4010    0.1818 Cl  0  0  0  0  0  0  0  0  0  0  0  0
   -0.3866    0.3334    1.7644 C   0  0  0  0  0  3  0  0  0  0  0  0
    0.3373    0.5649    2.5418 H   0  0  0  0  0  0  0  0  0  0  0  0
   -1.7592    0.2828    2.2087 C   0  0  0  0  0  0  0  0  0  0  0  0
   -2.7742    0.0246    1.2550 C   0  0  0  0  0  0  0  0  0  0  0  0
   -4.1116   -0.0576    1.6349 C   0  0  0  0  0  0  0  0  0  0  0  0
   -4.4385    0.1213    2.9837 C   0  0  0  0  0  0  0  0  0  0  0  0
   -3.4564    0.3807    3.9462 C   0  0  0  0  0  0  0  0  0  0  0  0
   -2.1234    0.4606    3.5571 C   0  0  0  0  0  0  0  0  0  0  0  0
   -1.3398    0.6563    4.2844 H   0  0  0  0  0  0  0  0  0  0  0  0
   -3.7343    0.5175    4.9860 H   0  0  0  0  0  0  0  0  0  0  0  0
   -5.4811    0.0570    3.2801 H   0  0  0  0  0  0  0  0  0  0  0  0
   -4.8950   -0.2539    0.9144 H   0  0  0  0  0  0  0  0  0  0  0  0
   -2.2956   -0.1424   -0.0131 O   0  0  0  0  0  0  0  0  0  0  0  0
    5.5503   -0.2190    2.2212 H   0  0  0  0  0  0  0  0  0  0  0  0
    5.1273    1.3088    1.4269 H   0  0  0  0  0  0  0  0  0  0  0  0
    6.6055    0.2798    0.4297 N   0  0  0  0  0  0  0  0  0  0  0  0
    5.3829    0.2616    1.2516 C   0  0  0  0  0  0  0  0  0  0  0  0
    7.4056    0.6925    0.9046 H   0  0  0  0  0  0  0  0  0  0  0  0
    7.1052   -1.1177   -0.3636 S   0  0  0  0  0  0  0  0  0  0  0  0
    6.3173   -1.0762   -1.8390 N   0  0  0  0  0  0  0  0  0  0  0  0
    8.5278   -0.9215   -0.6370 O   0  0  0  0  0  0  0  0  0  0  0  0
    6.6198   -2.3184    0.3244 O   0  0  0  0  0  0  0  0  0  0  0  0
    4.5402   -1.1154   -2.8791 H   0  0  0  0  0  0  0  0  0  0  0  0
    4.5984   -2.2202   -1.5008 H   0  0  0  0  0  0  0  0  0  0  0  0
    4.8517   -1.2125   -1.8368 C   0  0  0  0  0  0  0  0  0  0  0  0
    6.6366   -0.2573   -2.3552 H   0  0  0  0  0  0  0  0  0  0  0  0
   -3.2054   -0.2584   -1.1574 C   0  0  0  0  0  0  0  0  0  0  0  0
   -2.5734   -0.3165   -2.0488 H   0  0  0  0  0  0  0  0  0  0  0  0
   -4.0214    1.0224   -1.2026 C   0  0  0  0  0  0  0  0  0  0  0  0
   -4.6777    1.1037   -0.3302 H   0  0  0  0  0  0  0  0  0  0  0  0
   -3.3705    1.8994   -1.2356 H   0  0  0  0  0  0  0  0  0  0  0  0
   -4.6465    1.0111   -2.1015 H   0  0  0  0  0  0  0  0  0  0  0  0
   -4.0663   -1.5054   -1.0088 C   0  0  0  0  0  0  0  0  0  0  0  0
   -4.7203   -1.6011   -1.8817 H   0  0  0  0  0  0  0  0  0  0  0  0
   -3.4604   -2.4127   -0.9361 H   0  0  0  0  0  0  0  0  0  0  0  0
   -4.6802   -1.4213   -0.1080 H   0  0  0  0  0  0  0  0  0  0  0  0
  1 50  1  0  0  0  0
  1 51  1  0  0  0  0
  2  1  1  1  0  0  0
  2  3  1  0  0  0  0
  3 29  1  0  0  0  0
  4  8  1  1  0  0  0
  4  3  1  0  0  0  0
  4 67  1  0  0  0  0
  5  7  1  6  0  0  0
  5  4  1  0  0  0  0
  6  5  1  0  0  0  0
  6  2  1  0  0  0  0
  9  6  1  0  0  0  0
 10  9  1  0  0  0  0
 10 21  1  0  0  0  0
 11 10  2  0  0  0  0
 12 13  2  0  0  0  0
 12 11  1  0  0  0  0
 13 14  1  0  0  0  0
 14 17  1  0  0  0  0
 14  9  2  0  0  0  0
 15 11  1  0  0  0  0
 16 13  1  0  0  0  0
 17 19  1  0  0  0  0
 18 17  1  0  0  0  0
 20 17  1  0  0  0  0
 21 24  1  0  0  0  0
 22 21  1  0  0  0  0
 23 21  1  0  0  0  0
 25 28  1  0  0  0  0
 25 12  1  0  0  0  0
 26 25  1  0  0  0  0
 27 25  1  0  0  0  0
 29 30  2  0  0  0  0
 29 34  1  0  0  0  0
 30 31  1  0  0  0  0
 31 32  1  0  0  0  0
 31 36  2  0  0  0  0
 33 36  1  0  0  0  0
 33 35  1  0  0  0  0
 34 33  2  0  0  0  0
 36 45  1  0  0  0  0
 37 34  1  0  0  0  0
 37 38  1  0  0  0  0
 39 37  1  0  0  0  0
 40 37  1  0  0  0  0
 41 42  1  0  0  0  0
 42 43  1  0  0  0  0
 42 30  1  0  0  0  0
 44 42  1  0  0  0  0
 45 46  1  0  0  0  0
 45 48  1  0  0  0  0
 45 47  1  0  0  0  0
 49  1  1  0  0  0  0
 51 53  1  0  0  0  0
 51 52  1  0  0  0  0
 53 58  1  0  0  0  0
 54 55  1  0  0  0  0
 54 53  2  0  0  0  0
 55 56  2  0  0  0  0
 56 61  1  0  0  0  0
 56 57  1  0  0  0  0
 57 60  1  0  0  0  0
 58 57  2  0  0  0  0
 58 59  1  0  0  0  0
 62 55  1  0  0  0  0
 63 54  1  0  0  0  0
 66 68  1  0  0  0  0
 66 67  1  0  0  0  0
 67 65  1  0  0  0  0
 67 64  1  0  0  0  0
 69 72  2  0  0  0  0
 69 66  1  0  0  0  0
 70 75  1  0  0  0  0
 70 69  1  0  0  0  0
 71 69  2  0  0  0  0
 73 75  1  0  0  0  0
 75 74  1  0  0  0  0
 75  5  1  0  0  0  0
 76 70  1  0  0  0  0
 77 83  1  0  0  0  0
 77 63  1  0  0  0  0
 78 77  1  0  0  0  0
 79 77  1  0  0  0  0
 79 80  1  0  0  0  0
 81 79  1  0  0  0  0
 82 79  1  0  0  0  0
 83 85  1  0  0  0  0
 83 86  1  0  0  0  0
 84 83  1  0  0  0  0
M  END
