Ru_SIMes_sulfamide_ArOiPr_iso.log
 OpenBabel10172311093D

 86 90  0  0  1  0  0  0  0  0999 V2000
    1.3712    0.3886    0.1355 Ru  0  0  0  0  0  0  0  0  0  0  0  0
   -0.5577   -0.0594    0.0497 C   0  0  2  0  0  3  0  0  0  0  0  0
   -1.4948    0.9279    0.1811 N   0  0  0  0  0  0  0  0  0  0  0  0
   -2.8676    0.4082    0.0731 C   0  0  1  0  0  0  0  0  0  0  0  0
   -2.6620   -1.0869    0.3302 C   0  0  2  0  0  0  0  0  0  0  0  0
   -1.2288   -1.2394    0.0069 N   0  0  0  0  0  0  0  0  0  0  0  0
   -2.8181   -1.3245    1.3904 H   0  0  0  0  0  0  0  0  0  0  0  0
   -3.2230    0.5534   -0.9509 H   0  0  0  0  0  0  0  0  0  0  0  0
   -0.6401   -2.5323   -0.1463 C   0  0  0  0  0  0  0  0  0  0  0  0
   -0.3811   -3.3253    0.9825 C   0  0  0  0  0  0  0  0  0  0  0  0
    0.2462   -4.5608    0.7886 C   0  0  0  0  0  0  0  0  0  0  0  0
    0.6003   -5.0178   -0.4846 C   0  0  0  0  0  0  0  0  0  0  0  0
    0.3072   -4.2079   -1.5884 C   0  0  0  0  0  0  0  0  0  0  0  0
   -0.3144   -2.9650   -1.4443 C   0  0  0  0  0  0  0  0  0  0  0  0
    0.4717   -5.1751    1.6567 H   0  0  0  0  0  0  0  0  0  0  0  0
    0.5804   -4.5458   -2.5850 H   0  0  0  0  0  0  0  0  0  0  0  0
   -0.5491   -2.0821   -2.6433 C   0  0  0  0  0  0  0  0  0  0  0  0
   -1.5868   -1.7380   -2.6998 H   0  0  0  0  0  0  0  0  0  0  0  0
    0.0826   -1.1873   -2.5979 H   0  0  0  0  0  0  0  0  0  0  0  0
   -0.3182   -2.6202   -3.5668 H   0  0  0  0  0  0  0  0  0  0  0  0
   -0.7330   -2.8559    2.3710 C   0  0  0  0  0  0  0  0  0  0  0  0
   -0.2138   -3.4582    3.1220 H   0  0  0  0  0  0  0  0  0  0  0  0
   -1.8090   -2.9500    2.5645 H   0  0  0  0  0  0  0  0  0  0  0  0
   -0.4543   -1.8082    2.5176 H   0  0  0  0  0  0  0  0  0  0  0  0
    1.2612   -6.3617   -0.6692 C   0  0  0  0  0  0  0  0  0  0  0  0
    0.5175   -7.1352   -0.9008 H   0  0  0  0  0  0  0  0  0  0  0  0
    1.7883   -6.6742    0.2375 H   0  0  0  0  0  0  0  0  0  0  0  0
    1.9779   -6.3425   -1.4966 H   0  0  0  0  0  0  0  0  0  0  0  0
   -1.2267    2.3220   -0.0515 C   0  0  0  0  0  0  0  0  0  0  0  0
   -0.9574    3.1739    1.0333 C   0  0  0  0  0  0  0  0  0  0  0  0
   -0.6364    4.5109    0.7620 C   0  0  0  0  0  0  0  0  0  0  0  0
   -0.4098    5.1710    1.5960 H   0  0  0  0  0  0  0  0  0  0  0  0
   -0.9606    4.1579   -1.5886 C   0  0  0  0  0  0  0  0  0  0  0  0
   -1.2682    2.8149   -1.3734 C   0  0  0  0  0  0  0  0  0  0  0  0
   -0.9792    4.5419   -2.6059 H   0  0  0  0  0  0  0  0  0  0  0  0
   -0.6183    5.0176   -0.5372 C   0  0  0  0  0  0  0  0  0  0  0  0
   -1.6689    1.9450   -2.5384 C   0  0  0  0  0  0  0  0  0  0  0  0
   -1.2701    2.3507   -3.4717 H   0  0  0  0  0  0  0  0  0  0  0  0
   -2.7615    1.9046   -2.6381 H   0  0  0  0  0  0  0  0  0  0  0  0
   -1.2975    0.9250   -2.4331 H   0  0  0  0  0  0  0  0  0  0  0  0
   -2.0119    3.0942    2.8999 H   0  0  0  0  0  0  0  0  0  0  0  0
   -1.0704    2.7286    2.4691 C   0  0  0  0  0  0  0  0  0  0  0  0
   -0.2558    3.1435    3.0702 H   0  0  0  0  0  0  0  0  0  0  0  0
   -1.0378    1.6452    2.5662 H   0  0  0  0  0  0  0  0  0  0  0  0
   -0.2351    6.4514   -0.8102 C   0  0  0  0  0  0  0  0  0  0  0  0
   -0.3150    7.0649    0.0923 H   0  0  0  0  0  0  0  0  0  0  0  0
   -0.8703    6.8930   -1.5855 H   0  0  0  0  0  0  0  0  0  0  0  0
    0.8014    6.5182   -1.1650 H   0  0  0  0  0  0  0  0  0  0  0  0
    1.5796    1.1573   -2.1301 Cl  0  0  0  0  0  0  0  0  0  0  0  0
    1.3364    0.3110    2.5412 Cl  0  0  0  0  0  0  0  0  0  0  0  0
    2.1639   -1.2506   -0.1071 C   0  0  0  0  0  3  0  0  0  0  0  0
    1.6471   -2.1800   -0.3300 H   0  0  0  0  0  0  0  0  0  0  0  0
    3.5980   -1.3683    0.0058 C   0  0  0  0  0  0  0  0  0  0  0  0
    4.3602   -0.2011    0.2558 C   0  0  0  0  0  0  0  0  0  0  0  0
    5.7448   -0.2645    0.3922 C   0  0  0  0  0  0  0  0  0  0  0  0
    6.3750   -1.5082    0.2756 C   0  0  0  0  0  0  0  0  0  0  0  0
    5.6467   -2.6766    0.0251 C   0  0  0  0  0  0  0  0  0  0  0  0
    4.2643   -2.6037   -0.1087 C   0  0  0  0  0  0  0  0  0  0  0  0
    3.6732   -3.4956   -0.2994 H   0  0  0  0  0  0  0  0  0  0  0  0
    6.1578   -3.6296   -0.0635 H   0  0  0  0  0  0  0  0  0  0  0  0
    7.4545   -1.5572    0.3814 H   0  0  0  0  0  0  0  0  0  0  0  0
    6.3373    0.6209    0.5828 H   0  0  0  0  0  0  0  0  0  0  0  0
    3.6016    0.9301    0.3568 O   0  0  0  0  0  0  0  0  0  0  0  0
   -4.1206    2.0730    0.6524 H   0  0  0  0  0  0  0  0  0  0  0  0
   -3.3796    1.2169    2.0106 H   0  0  0  0  0  0  0  0  0  0  0  0
   -5.0818    0.3113    1.2883 N   0  0  0  0  0  0  0  0  0  0  0  0
   -3.8501    1.0867    1.0354 C   0  0  0  0  0  0  0  0  0  0  0  0
   -5.0842   -0.2060    2.1631 H   0  0  0  0  0  0  0  0  0  0  0  0
   -5.8040   -0.5750    0.0866 S   0  0  0  0  0  0  0  0  0  0  0  0
   -4.9264   -2.0198    0.0765 N   0  0  0  0  0  0  0  0  0  0  0  0
   -7.1416   -0.9586    0.5332 O   0  0  0  0  0  0  0  0  0  0  0  0
   -5.6277    0.1935   -1.1516 O   0  0  0  0  0  0  0  0  0  0  0  0
   -3.2062   -3.0167   -0.4610 H   0  0  0  0  0  0  0  0  0  0  0  0
   -3.5754   -1.6637   -1.5496 H   0  0  0  0  0  0  0  0  0  0  0  0
   -3.5736   -1.9892   -0.5021 C   0  0  0  0  0  0  0  0  0  0  0  0
   -5.5113   -2.7475   -0.3327 H   0  0  0  0  0  0  0  0  0  0  0  0
    4.2267    2.2534    0.4498 C   0  0  0  0  0  0  0  0  0  0  0  0
    5.0108    2.1716    1.2087 H   0  0  0  0  0  0  0  0  0  0  0  0
    3.1542    3.2127    0.9370 C   0  0  0  0  0  0  0  0  0  0  0  0
    2.3596    3.3252    0.1927 H   0  0  0  0  0  0  0  0  0  0  0  0
    2.7120    2.8614    1.8724 H   0  0  0  0  0  0  0  0  0  0  0  0
    3.6081    4.1947    1.1056 H   0  0  0  0  0  0  0  0  0  0  0  0
    4.8063    2.6479   -0.9018 C   0  0  0  0  0  0  0  0  0  0  0  0
    5.2942    3.6244   -0.8163 H   0  0  0  0  0  0  0  0  0  0  0  0
    5.5483    1.9262   -1.2539 H   0  0  0  0  0  0  0  0  0  0  0  0
    4.0028    2.7117   -1.6404 H   0  0  0  0  0  0  0  0  0  0  0  0
  1 50  1  0  0  0  0
  2  1  1  1  0  0  0
  2  3  1  0  0  0  0
  4  8  1  6  0  0  0
  4  3  1  0  0  0  0
  4  5  1  0  0  0  0
  4 67  1  0  0  0  0
  5  7  1  1  0  0  0
  6  2  1  0  0  0  0
  6  5  1  0  0  0  0
  9  6  1  0  0  0  0
  9 10  1  0  0  0  0
 10 21  1  0  0  0  0
 11 10  2  0  0  0  0
 11 15  1  0  0  0  0
 12 11  1  0  0  0  0
 13 14  1  0  0  0  0
 13 12  2  0  0  0  0
 14  9  2  0  0  0  0
 16 13  1  0  0  0  0
 17 19  1  0  0  0  0
 17 14  1  0  0  0  0
 18 17  1  0  0  0  0
 20 17  1  0  0  0  0
 21 24  1  0  0  0  0
 21 23  1  0  0  0  0
 21 22  1  0  0  0  0
 25 12  1  0  0  0  0
 25 27  1  0  0  0  0
 26 25  1  0  0  0  0
 28 25  1  0  0  0  0
 29  3  1  0  0  0  0
 29 30  1  0  0  0  0
 30 42  1  0  0  0  0
 31 30  2  0  0  0  0
 31 32  1  0  0  0  0
 33 34  1  0  0  0  0
 33 36  2  0  0  0  0
 34 29  2  0  0  0  0
 35 33  1  0  0  0  0
 36 31  1  0  0  0  0
 37 40  1  0  0  0  0
 37 34  1  0  0  0  0
 38 37  1  0  0  0  0
 39 37  1  0  0  0  0
 42 44  1  0  0  0  0
 42 41  1  0  0  0  0
 42 43  1  0  0  0  0
 45 36  1  0  0  0  0
 45 46  1  0  0  0  0
 47 45  1  0  0  0  0
 48 45  1  0  0  0  0
 49  1  1  0  0  0  0
 51 53  1  0  0  0  0
 51  1  1  0  0  0  0
 52 51  1  0  0  0  0
 53 54  1  0  0  0  0
 54 63  1  0  0  0  0
 54 55  2  0  0  0  0
 55 62  1  0  0  0  0
 56 61  1  0  0  0  0
 56 55  1  0  0  0  0
 57 56  2  0  0  0  0
 58 53  2  0  0  0  0
 58 57  1  0  0  0  0
 59 58  1  0  0  0  0
 60 57  1  0  0  0  0
 63 77  1  0  0  0  0
 64 67  1  0  0  0  0
 66 68  1  0  0  0  0
 67 66  1  0  0  0  0
 67 65  1  0  0  0  0
 69 71  2  0  0  0  0
 69 66  1  0  0  0  0
 70 69  1  0  0  0  0
 72 69  2  0  0  0  0
 74 75  1  0  0  0  0
 75 73  1  0  0  0  0
 75 70  1  0  0  0  0
 75  5  1  0  0  0  0
 76 70  1  0  0  0  0
 77 79  1  0  0  0  0
 77 78  1  0  0  0  0
 79 82  1  0  0  0  0
 79 81  1  0  0  0  0
 80 79  1  0  0  0  0
 83 84  1  0  0  0  0
 83 77  1  0  0  0  0
 85 83  1  0  0  0  0
 86 83  1  0  0  0  0
M  END
$$$$
Ru_SIMes_sulfamide_ArOiPr_NH12_iso.log
 OpenBabel10172311093D

 86 90  0  0  1  0  0  0  0  0999 V2000
    1.3695    0.3890    0.1361 Ru  0  0  0  0  0  0  0  0  0  0  0  0
   -0.5595   -0.0586    0.0427 C   0  0  2  0  0  3  0  0  0  0  0  0
   -1.4953    0.9289    0.1846 N   0  0  0  0  0  0  0  0  0  0  0  0
   -2.8716    0.4158    0.0901 C   0  0  1  0  0  0  0  0  0  0  0  0
   -2.6697   -1.0913    0.2744 C   0  0  2  0  0  0  0  0  0  0  0  0
   -1.2301   -1.2370   -0.0181 N   0  0  0  0  0  0  0  0  0  0  0  0
   -2.8511   -1.3815    1.3179 H   0  0  0  0  0  0  0  0  0  0  0  0
   -3.2557    0.6143   -0.9143 H   0  0  0  0  0  0  0  0  0  0  0  0
   -0.6418   -2.5314   -0.1631 C   0  0  0  0  0  0  0  0  0  0  0  0
   -0.3950   -3.3210    0.9709 C   0  0  0  0  0  0  0  0  0  0  0  0
    0.2302   -4.5590    0.7869 C   0  0  0  0  0  0  0  0  0  0  0  0
    0.5937   -5.0220   -0.4814 C   0  0  0  0  0  0  0  0  0  0  0  0
    0.3140   -4.2148   -1.5906 C   0  0  0  0  0  0  0  0  0  0  0  0
   -0.3043   -2.9691   -1.4564 C   0  0  0  0  0  0  0  0  0  0  0  0
    0.4465   -5.1707    1.6592 H   0  0  0  0  0  0  0  0  0  0  0  0
    0.5958   -4.5567   -2.5833 H   0  0  0  0  0  0  0  0  0  0  0  0
   -0.5214   -2.0881   -2.6601 C   0  0  0  0  0  0  0  0  0  0  0  0
   -1.5596   -1.7498   -2.7376 H   0  0  0  0  0  0  0  0  0  0  0  0
    0.1043   -1.1899   -2.6035 H   0  0  0  0  0  0  0  0  0  0  0  0
   -0.2702   -2.6256   -3.5787 H   0  0  0  0  0  0  0  0  0  0  0  0
   -0.7555   -2.8459    2.3554 C   0  0  0  0  0  0  0  0  0  0  0  0
   -0.2376   -3.4426    3.1117 H   0  0  0  0  0  0  0  0  0  0  0  0
   -1.8320   -2.9434    2.5449 H   0  0  0  0  0  0  0  0  0  0  0  0
   -0.4814   -1.7966    2.4988 H   0  0  0  0  0  0  0  0  0  0  0  0
    1.2514   -6.3690   -0.6552 C   0  0  0  0  0  0  0  0  0  0  0  0
    0.5067   -7.1410   -0.8885 H   0  0  0  0  0  0  0  0  0  0  0  0
    1.7708   -6.6791    0.2567 H   0  0  0  0  0  0  0  0  0  0  0  0
    1.9740   -6.3561   -1.4775 H   0  0  0  0  0  0  0  0  0  0  0  0
   -1.2262    2.3218   -0.0560 C   0  0  0  0  0  0  0  0  0  0  0  0
   -0.9571    3.1810    1.0232 C   0  0  0  0  0  0  0  0  0  0  0  0
   -0.6347    4.5157    0.7428 C   0  0  0  0  0  0  0  0  0  0  0  0
   -0.4080    5.1814    1.5723 H   0  0  0  0  0  0  0  0  0  0  0  0
   -0.9560    4.1465   -1.6057 C   0  0  0  0  0  0  0  0  0  0  0  0
   -1.2651    2.8053   -1.3814 C   0  0  0  0  0  0  0  0  0  0  0  0
   -0.9725    4.5232   -2.6258 H   0  0  0  0  0  0  0  0  0  0  0  0
   -0.6146    5.0133   -0.5601 C   0  0  0  0  0  0  0  0  0  0  0  0
   -1.6642    1.9278   -2.5414 C   0  0  0  0  0  0  0  0  0  0  0  0
   -1.2559    2.3222   -3.4754 H   0  0  0  0  0  0  0  0  0  0  0  0
   -2.7563    1.8947   -2.6487 H   0  0  0  0  0  0  0  0  0  0  0  0
   -1.3016    0.9059   -2.4252 H   0  0  0  0  0  0  0  0  0  0  0  0
   -2.0244    3.0921    2.8824 H   0  0  0  0  0  0  0  0  0  0  0  0
   -1.0716    2.7449    2.4616 C   0  0  0  0  0  0  0  0  0  0  0  0
   -0.2710    3.1831    3.0651 H   0  0  0  0  0  0  0  0  0  0  0  0
   -1.0157    1.6632    2.5675 H   0  0  0  0  0  0  0  0  0  0  0  0
   -0.2292    6.4446   -0.8425 C   0  0  0  0  0  0  0  0  0  0  0  0
   -0.3139    7.0655    0.0544 H   0  0  0  0  0  0  0  0  0  0  0  0
   -0.8598    6.8801   -1.6250 H   0  0  0  0  0  0  0  0  0  0  0  0
    0.8094    6.5080   -1.1921 H   0  0  0  0  0  0  0  0  0  0  0  0
    1.5867    1.1574   -2.1288 Cl  0  0  0  0  0  0  0  0  0  0  0  0
    1.3270    0.3095    2.5421 Cl  0  0  0  0  0  0  0  0  0  0  0  0
    2.1623   -1.2508   -0.1028 C   0  0  0  0  0  3  0  0  0  0  0  0
    1.6461   -2.1798   -0.3285 H   0  0  0  0  0  0  0  0  0  0  0  0
    3.5957   -1.3697    0.0183 C   0  0  0  0  0  0  0  0  0  0  0  0
    4.3574   -0.2028    0.2710 C   0  0  0  0  0  0  0  0  0  0  0  0
    5.7412   -0.2672    0.4154 C   0  0  0  0  0  0  0  0  0  0  0  0
    6.3709   -1.5117    0.3043 C   0  0  0  0  0  0  0  0  0  0  0  0
    5.6430   -2.6798    0.0514 C   0  0  0  0  0  0  0  0  0  0  0  0
    4.2615   -2.6059   -0.0906 C   0  0  0  0  0  0  0  0  0  0  0  0
    3.6707   -3.4974   -0.2834 H   0  0  0  0  0  0  0  0  0  0  0  0
    6.1537   -3.6334   -0.0327 H   0  0  0  0  0  0  0  0  0  0  0  0
    7.4497   -1.5616    0.4165 H   0  0  0  0  0  0  0  0  0  0  0  0
    6.3334    0.6179    0.6079 H   0  0  0  0  0  0  0  0  0  0  0  0
    3.5993    0.9292    0.3660 O   0  0  0  0  0  0  0  0  0  0  0  0
   -4.0458    2.0799    0.8049 H   0  0  0  0  0  0  0  0  0  0  0  0
   -3.3303    1.0922    2.0865 H   0  0  0  0  0  0  0  0  0  0  0  0
   -5.0817    0.3199    1.3161 N   0  0  0  0  0  0  0  0  0  0  0  0
   -3.8190    1.0558    1.1121 C   0  0  0  0  0  0  0  0  0  0  0  0
   -5.1642   -0.1502    2.2131 H   0  0  0  0  0  0  0  0  0  0  0  0
   -5.8011   -0.5763    0.1075 S   0  0  0  0  0  0  0  0  0  0  0  0
   -4.9650   -2.0098   -0.1663 N   0  0  0  0  0  0  0  0  0  0  0  0
   -7.0967   -0.9939    0.6381 O   0  0  0  0  0  0  0  0  0  0  0  0
   -5.6724    0.2138   -1.1172 O   0  0  0  0  0  0  0  0  0  0  0  0
   -3.2116   -2.9651   -0.6732 H   0  0  0  0  0  0  0  0  0  0  0  0
   -3.5728   -1.5352   -1.6481 H   0  0  0  0  0  0  0  0  0  0  0  0
   -3.5743   -1.9359   -0.6319 C   0  0  0  0  0  0  0  0  0  0  0  0
   -5.0972   -2.6345    0.6273 H   0  0  0  0  0  0  0  0  0  0  0  0
    4.2251    2.2521    0.4604 C   0  0  0  0  0  0  0  0  0  0  0  0
    5.0049    2.1707    1.2237 H   0  0  0  0  0  0  0  0  0  0  0  0
    3.1509    3.2131    0.9405 C   0  0  0  0  0  0  0  0  0  0  0  0
    2.3605    3.3254    0.1918 H   0  0  0  0  0  0  0  0  0  0  0  0
    2.7033    2.8636    1.8740 H   0  0  0  0  0  0  0  0  0  0  0  0
    3.6049    4.1948    1.1103 H   0  0  0  0  0  0  0  0  0  0  0  0
    4.8122    2.6439   -0.8886 C   0  0  0  0  0  0  0  0  0  0  0  0
    5.3008    3.6199   -0.8021 H   0  0  0  0  0  0  0  0  0  0  0  0
    5.5553    1.9207   -1.2356 H   0  0  0  0  0  0  0  0  0  0  0  0
    4.0127    2.7075   -1.6317 H   0  0  0  0  0  0  0  0  0  0  0  0
  1 50  1  0  0  0  0
  2  1  1  1  0  0  0
  2  3  1  0  0  0  0
  4  8  1  6  0  0  0
  4  3  1  0  0  0  0
  4  5  1  0  0  0  0
  4 67  1  0  0  0  0
  5  7  1  1  0  0  0
  6  2  1  0  0  0  0
  6  5  1  0  0  0  0
  9  6  1  0  0  0  0
  9 10  1  0  0  0  0
 10 21  1  0  0  0  0
 11 10  2  0  0  0  0
 11 15  1  0  0  0  0
 12 11  1  0  0  0  0
 13 14  1  0  0  0  0
 13 12  2  0  0  0  0
 14  9  2  0  0  0  0
 16 13  1  0  0  0  0
 17 19  1  0  0  0  0
 17 14  1  0  0  0  0
 18 17  1  0  0  0  0
 20 17  1  0  0  0  0
 21 24  1  0  0  0  0
 21 23  1  0  0  0  0
 21 22  1  0  0  0  0
 25 12  1  0  0  0  0
 25 27  1  0  0  0  0
 26 25  1  0  0  0  0
 28 25  1  0  0  0  0
 29  3  1  0  0  0  0
 29 30  1  0  0  0  0
 30 42  1  0  0  0  0
 31 30  2  0  0  0  0
 31 32  1  0  0  0  0
 33 34  1  0  0  0  0
 33 36  2  0  0  0  0
 34 29  2  0  0  0  0
 35 33  1  0  0  0  0
 36 31  1  0  0  0  0
 37 40  1  0  0  0  0
 37 34  1  0  0  0  0
 38 37  1  0  0  0  0
 39 37  1  0  0  0  0
 42 44  1  0  0  0  0
 42 41  1  0  0  0  0
 42 43  1  0  0  0  0
 45 36  1  0  0  0  0
 45 46  1  0  0  0  0
 47 45  1  0  0  0  0
 48 45  1  0  0  0  0
 49  1  1  0  0  0  0
 51 53  1  0  0  0  0
 51  1  1  0  0  0  0
 52 51  1  0  0  0  0
 53 54  1  0  0  0  0
 54 63  1  0  0  0  0
 54 55  2  0  0  0  0
 55 62  1  0  0  0  0
 56 55  1  0  0  0  0
 56 61  1  0  0  0  0
 57 56  2  0  0  0  0
 58 53  2  0  0  0  0
 58 57  1  0  0  0  0
 59 58  1  0  0  0  0
 60 57  1  0  0  0  0
 63 77  1  0  0  0  0
 64 67  1  0  0  0  0
 66 68  1  0  0  0  0
 67 66  1  0  0  0  0
 67 65  1  0  0  0  0
 69 71  2  0  0  0  0
 69 66  1  0  0  0  0
 70 69  1  0  0  0  0
 70 76  1  0  0  0  0
 72 69  2  0  0  0  0
 73 75  1  0  0  0  0
 74 75  1  0  0  0  0
 75 70  1  0  0  0  0
 75  5  1  0  0  0  0
 77 79  1  0  0  0  0
 77 78  1  0  0  0  0
 79 82  1  0  0  0  0
 79 81  1  0  0  0  0
 80 79  1  0  0  0  0
 83 84  1  0  0  0  0
 83 77  1  0  0  0  0
 85 83  1  0  0  0  0
 86 83  1  0  0  0  0
M  END
$$$$
Ru_SIMes_sulfamide_ArOiPr_NH12.log
 OpenBabel10172311093D

 86 90  0  0  1  0  0  0  0  0999 V2000
    1.3829   -0.3421   -0.1234 Ru  0  0  0  0  0  0  0  0  0  0  0  0
   -0.5586    0.0059    0.0706 C   0  0  1  0  0  3  0  0  0  0  0  0
   -1.2837    1.1494    0.1240 N   0  0  0  0  0  0  0  0  0  0  0  0
   -2.7161    0.9117   -0.1487 C   0  0  1  0  0  0  0  0  0  0  0  0
   -2.8500   -0.5841    0.1494 C   0  0  2  0  0  0  0  0  0  0  0  0
   -1.4533   -1.0281   -0.0048 N   0  0  0  0  0  0  0  0  0  0  0  0
   -3.1754   -0.7508    1.1854 H   0  0  0  0  0  0  0  0  0  0  0  0
   -2.8956    1.0778   -1.2156 H   0  0  0  0  0  0  0  0  0  0  0  0
   -1.0957   -2.4069    0.1857 C   0  0  0  0  0  0  0  0  0  0  0  0
   -1.0273   -2.9210    1.4976 C   0  0  0  0  0  0  0  0  0  0  0  0
   -0.6239   -4.2448    1.6690 C   0  0  0  0  0  0  0  0  0  0  0  0
   -0.2924   -5.0646    0.5828 C   0  0  0  0  0  0  0  0  0  0  0  0
   -0.4233   -4.5418   -0.7039 C   0  0  0  0  0  0  0  0  0  0  0  0
   -0.8428   -3.2241   -0.9300 C   0  0  0  0  0  0  0  0  0  0  0  0
   -0.5560   -4.6446    2.6781 H   0  0  0  0  0  0  0  0  0  0  0  0
   -0.2082   -5.1744   -1.5619 H   0  0  0  0  0  0  0  0  0  0  0  0
   -1.0775   -2.7614   -2.3456 C   0  0  0  0  0  0  0  0  0  0  0  0
   -2.0246   -3.1716   -2.7198 H   0  0  0  0  0  0  0  0  0  0  0  0
   -1.1157   -1.6765   -2.4210 H   0  0  0  0  0  0  0  0  0  0  0  0
   -0.2834   -3.1179   -3.0084 H   0  0  0  0  0  0  0  0  0  0  0  0
   -1.4102   -2.0917    2.6972 C   0  0  0  0  0  0  0  0  0  0  0  0
   -0.9433   -2.4893    3.6019 H   0  0  0  0  0  0  0  0  0  0  0  0
   -2.4969   -2.1096    2.8531 H   0  0  0  0  0  0  0  0  0  0  0  0
   -1.0983   -1.0520    2.5893 H   0  0  0  0  0  0  0  0  0  0  0  0
    0.2003   -6.4734    0.8051 C   0  0  0  0  0  0  0  0  0  0  0  0
    0.0769   -7.0864   -0.0929 H   0  0  0  0  0  0  0  0  0  0  0  0
   -0.3335   -6.9572    1.6300 H   0  0  0  0  0  0  0  0  0  0  0  0
    1.2671   -6.4775    1.0637 H   0  0  0  0  0  0  0  0  0  0  0  0
   -0.7737    2.4744    0.2760 C   0  0  0  0  0  0  0  0  0  0  0  0
   -0.3968    2.9034    1.5614 C   0  0  0  0  0  0  0  0  0  0  0  0
    0.1305    4.1904    1.6979 C   0  0  0  0  0  0  0  0  0  0  0  0
    0.4408    4.5284    2.6834 H   0  0  0  0  0  0  0  0  0  0  0  0
   -0.1144    4.5877   -0.6599 C   0  0  0  0  0  0  0  0  0  0  0  0
   -0.6501    3.3093   -0.8461 C   0  0  0  0  0  0  0  0  0  0  0  0
    0.0040    5.2365   -1.5243 H   0  0  0  0  0  0  0  0  0  0  0  0
    0.2820    5.0460    0.6005 C   0  0  0  0  0  0  0  0  0  0  0  0
   -1.0519    2.8400   -2.2212 C   0  0  0  0  0  0  0  0  0  0  0  0
   -0.6283    3.4944   -2.9884 H   0  0  0  0  0  0  0  0  0  0  0  0
   -2.1421    2.8534   -2.3477 H   0  0  0  0  0  0  0  0  0  0  0  0
   -0.7041    1.8194   -2.4074 H   0  0  0  0  0  0  0  0  0  0  0  0
   -1.4502    1.5043    2.8470 H   0  0  0  0  0  0  0  0  0  0  0  0
   -0.4682    1.9788    2.7503 C   0  0  0  0  0  0  0  0  0  0  0  0
   -0.2625    2.5259    3.6745 H   0  0  0  0  0  0  0  0  0  0  0  0
    0.2647    1.1688    2.6580 H   0  0  0  0  0  0  0  0  0  0  0  0
    0.8371    6.4379    0.7778 C   0  0  0  0  0  0  0  0  0  0  0  0
    1.5680    6.4748    1.5918 H   0  0  0  0  0  0  0  0  0  0  0  0
    0.0382    7.1494    1.0241 H   0  0  0  0  0  0  0  0  0  0  0  0
    1.3204    6.7933   -0.1375 H   0  0  0  0  0  0  0  0  0  0  0  0
    1.7688   -1.1471    2.1051 Cl  0  0  0  0  0  0  0  0  0  0  0  0
    1.1978   -0.2121   -2.5206 Cl  0  0  0  0  0  0  0  0  0  0  0  0
    2.1004    1.3330    0.1077 C   0  0  0  0  0  3  0  0  0  0  0  0
    1.5484    2.2301    0.3768 H   0  0  0  0  0  0  0  0  0  0  0  0
    3.5173    1.5286   -0.0869 C   0  0  0  0  0  0  0  0  0  0  0  0
    4.3216    0.4074   -0.4067 C   0  0  0  0  0  0  0  0  0  0  0  0
    5.6899    0.5453   -0.6263 C   0  0  0  0  0  0  0  0  0  0  0  0
    6.2615    1.8183   -0.5238 C   0  0  0  0  0  0  0  0  0  0  0  0
    5.4911    2.9425   -0.2060 C   0  0  0  0  0  0  0  0  0  0  0  0
    4.1252    2.7951    0.0110 C   0  0  0  0  0  0  0  0  0  0  0  0
    3.5024    3.6517    0.2546 H   0  0  0  0  0  0  0  0  0  0  0  0
    5.9570    3.9195   -0.1304 H   0  0  0  0  0  0  0  0  0  0  0  0
    7.3283    1.9259   -0.6948 H   0  0  0  0  0  0  0  0  0  0  0  0
    6.3138   -0.3047   -0.8707 H   0  0  0  0  0  0  0  0  0  0  0  0
    3.6166   -0.7597   -0.4856 O   0  0  0  0  0  0  0  0  0  0  0  0
   -3.6571    2.8238    0.1960 H   0  0  0  0  0  0  0  0  0  0  0  0
   -3.2719    1.9390    1.6735 H   0  0  0  0  0  0  0  0  0  0  0  0
   -5.0311    1.3483    0.7820 N   0  0  0  0  0  0  0  0  0  0  0  0
   -3.6453    1.8324    0.6542 C   0  0  0  0  0  0  0  0  0  0  0  0
   -5.2690    0.9587    1.6898 H   0  0  0  0  0  0  0  0  0  0  0  0
   -5.7836    0.5085   -0.4477 S   0  0  0  0  0  0  0  0  0  0  0  0
   -5.2309   -1.0758   -0.5136 N   0  0  0  0  0  0  0  0  0  0  0  0
   -7.1892    0.4019   -0.0644 O   0  0  0  0  0  0  0  0  0  0  0  0
   -5.3559    1.1493   -1.6915 O   0  0  0  0  0  0  0  0  0  0  0  0
   -3.6623   -2.3924   -0.7162 H   0  0  0  0  0  0  0  0  0  0  0  0
   -3.6090   -1.0236   -1.8326 H   0  0  0  0  0  0  0  0  0  0  0  0
   -3.8097   -1.3134   -0.7987 C   0  0  0  0  0  0  0  0  0  0  0  0
   -5.5812   -1.5912    0.2920 H   0  0  0  0  0  0  0  0  0  0  0  0
    4.2995   -2.0475   -0.6469 C   0  0  0  0  0  0  0  0  0  0  0  0
    5.0279   -1.9111   -1.4520 H   0  0  0  0  0  0  0  0  0  0  0  0
    3.2472   -3.0515   -1.0863 C   0  0  0  0  0  0  0  0  0  0  0  0
    2.5108   -3.2235   -0.2949 H   0  0  0  0  0  0  0  0  0  0  0  0
    2.7262   -2.7046   -1.9819 H   0  0  0  0  0  0  0  0  0  0  0  0
    3.7393   -4.0038   -1.3091 H   0  0  0  0  0  0  0  0  0  0  0  0
    4.9837   -2.4371    0.6562 C   0  0  0  0  0  0  0  0  0  0  0  0
    5.5165   -3.3834    0.5174 H   0  0  0  0  0  0  0  0  0  0  0  0
    5.7071   -1.6831    0.9783 H   0  0  0  0  0  0  0  0  0  0  0  0
    4.2331   -2.5598    1.4418 H   0  0  0  0  0  0  0  0  0  0  0  0
  1 51  1  0  0  0  0
  1 49  1  0  0  0  0
  2  1  1  6  0  0  0
  2  3  1  0  0  0  0
  3 29  1  0  0  0  0
  4  8  1  6  0  0  0
  4  3  1  0  0  0  0
  4  5  1  0  0  0  0
  4 67  1  0  0  0  0
  5  7  1  1  0  0  0
  6  2  1  0  0  0  0
  6  5  1  0  0  0  0
  6  9  1  0  0  0  0
  9 10  1  0  0  0  0
 10 11  2  0  0  0  0
 10 21  1  0  0  0  0
 11 15  1  0  0  0  0
 12 25  1  0  0  0  0
 12 11  1  0  0  0  0
 13 12  2  0  0  0  0
 14 13  1  0  0  0  0
 14  9  2  0  0  0  0
 16 13  1  0  0  0  0
 17 14  1  0  0  0  0
 18 17  1  0  0  0  0
 19 17  1  0  0  0  0
 20 17  1  0  0  0  0
 21 23  1  0  0  0  0
 21 22  1  0  0  0  0
 24 21  1  0  0  0  0
 25 28  1  0  0  0  0
 25 27  1  0  0  0  0
 26 25  1  0  0  0  0
 29 30  1  0  0  0  0
 30 31  2  0  0  0  0
 30 42  1  0  0  0  0
 31 32  1  0  0  0  0
 33 36  2  0  0  0  0
 34 33  1  0  0  0  0
 34 29  2  0  0  0  0
 35 33  1  0  0  0  0
 36 45  1  0  0  0  0
 36 31  1  0  0  0  0
 37 34  1  0  0  0  0
 38 37  1  0  0  0  0
 39 37  1  0  0  0  0
 40 37  1  0  0  0  0
 42 41  1  0  0  0  0
 42 43  1  0  0  0  0
 44 42  1  0  0  0  0
 45 47  1  0  0  0  0
 45 46  1  0  0  0  0
 48 45  1  0  0  0  0
 50  1  1  0  0  0  0
 51 52  1  0  0  0  0
 53 58  1  0  0  0  0
 53 51  1  0  0  0  0
 54 53  2  0  0  0  0
 55 56  2  0  0  0  0
 55 54  1  0  0  0  0
 56 57  1  0  0  0  0
 57 60  1  0  0  0  0
 57 58  2  0  0  0  0
 58 59  1  0  0  0  0
 61 56  1  0  0  0  0
 62 55  1  0  0  0  0
 63 54  1  0  0  0  0
 64 67  1  0  0  0  0
 66 68  1  0  0  0  0
 67 66  1  0  0  0  0
 67 65  1  0  0  0  0
 69 71  2  0  0  0  0
 69 66  1  0  0  0  0
 70 69  1  0  0  0  0
 70 76  1  0  0  0  0
 72 69  2  0  0  0  0
 74 75  1  0  0  0  0
 75 73  1  0  0  0  0
 75 70  1  0  0  0  0
 75  5  1  0  0  0  0
 77 63  1  0  0  0  0
 77 83  1  0  0  0  0
 78 77  1  0  0  0  0
 79 77  1  0  0  0  0
 79 80  1  0  0  0  0
 81 79  1  0  0  0  0
 82 79  1  0  0  0  0
 83 85  1  0  0  0  0
 83 86  1  0  0  0  0
 84 83  1  0  0  0  0
M  END
$$$$
Ru_SIMes_sulfamide_ArOiPr_NH2_iso.log
 OpenBabel10172311093D

 86 90  0  0  1  0  0  0  0  0999 V2000
    1.3677    0.3925    0.1356 Ru  0  0  0  0  0  0  0  0  0  0  0  0
   -0.5593   -0.0652    0.0530 C   0  0  2  0  0  3  0  0  0  0  0  0
   -1.5006    0.9183    0.1856 N   0  0  0  0  0  0  0  0  0  0  0  0
   -2.8727    0.3956    0.0771 C   0  0  1  0  0  0  0  0  0  0  0  0
   -2.6610   -1.1024    0.3236 C   0  0  2  0  0  0  0  0  0  0  0  0
   -1.2243   -1.2475    0.0102 N   0  0  0  0  0  0  0  0  0  0  0  0
   -2.8232   -1.3436    1.3820 H   0  0  0  0  0  0  0  0  0  0  0  0
   -3.2292    0.5468   -0.9455 H   0  0  0  0  0  0  0  0  0  0  0  0
   -0.6310   -2.5387   -0.1407 C   0  0  0  0  0  0  0  0  0  0  0  0
   -0.3708   -3.3286    0.9900 C   0  0  0  0  0  0  0  0  0  0  0  0
    0.2597   -4.5629    0.7992 C   0  0  0  0  0  0  0  0  0  0  0  0
    0.6159   -5.0219   -0.4726 C   0  0  0  0  0  0  0  0  0  0  0  0
    0.3222   -4.2149   -1.5783 C   0  0  0  0  0  0  0  0  0  0  0  0
   -0.3024   -2.9731   -1.4374 C   0  0  0  0  0  0  0  0  0  0  0  0
    0.4861   -5.1748    1.6689 H   0  0  0  0  0  0  0  0  0  0  0  0
    0.5975   -4.5541   -2.5739 H   0  0  0  0  0  0  0  0  0  0  0  0
   -0.5369   -2.0932   -2.6386 C   0  0  0  0  0  0  0  0  0  0  0  0
   -1.5776   -1.7596   -2.7039 H   0  0  0  0  0  0  0  0  0  0  0  0
    0.0852   -1.1921   -2.5893 H   0  0  0  0  0  0  0  0  0  0  0  0
   -0.2940   -2.6296   -3.5600 H   0  0  0  0  0  0  0  0  0  0  0  0
   -0.7244   -2.8570    2.3774 C   0  0  0  0  0  0  0  0  0  0  0  0
   -0.2031   -3.4557    3.1298 H   0  0  0  0  0  0  0  0  0  0  0  0
   -1.8001   -2.9544    2.5713 H   0  0  0  0  0  0  0  0  0  0  0  0
   -0.4495   -1.8080    2.5214 H   0  0  0  0  0  0  0  0  0  0  0  0
    1.2800   -6.3648   -0.6539 C   0  0  0  0  0  0  0  0  0  0  0  0
    0.5385   -7.1399   -0.8872 H   0  0  0  0  0  0  0  0  0  0  0  0
    1.8047   -6.6754    0.2548 H   0  0  0  0  0  0  0  0  0  0  0  0
    1.9994   -6.3449   -1.4789 H   0  0  0  0  0  0  0  0  0  0  0  0
   -1.2365    2.3131   -0.0473 C   0  0  0  0  0  0  0  0  0  0  0  0
   -0.9659    3.1663    1.0362 C   0  0  0  0  0  0  0  0  0  0  0  0
   -0.6493    4.5040    0.7632 C   0  0  0  0  0  0  0  0  0  0  0  0
   -0.4215    5.1650    1.5962 H   0  0  0  0  0  0  0  0  0  0  0  0
   -0.9793    4.1492   -1.5861 C   0  0  0  0  0  0  0  0  0  0  0  0
   -1.2827    2.8056   -1.3694 C   0  0  0  0  0  0  0  0  0  0  0  0
   -1.0015    4.5326   -2.6036 H   0  0  0  0  0  0  0  0  0  0  0  0
   -0.6365    5.0104   -0.5361 C   0  0  0  0  0  0  0  0  0  0  0  0
   -1.6830    1.9344   -2.5336 C   0  0  0  0  0  0  0  0  0  0  0  0
   -1.2846    2.3395   -3.4673 H   0  0  0  0  0  0  0  0  0  0  0  0
   -2.7756    1.8931   -2.6334 H   0  0  0  0  0  0  0  0  0  0  0  0
   -1.3107    0.9146   -2.4277 H   0  0  0  0  0  0  0  0  0  0  0  0
   -2.0055    3.0950    2.9115 H   0  0  0  0  0  0  0  0  0  0  0  0
   -1.0703    2.7225    2.4732 C   0  0  0  0  0  0  0  0  0  0  0  0
   -0.2475    3.1318    3.0670 H   0  0  0  0  0  0  0  0  0  0  0  0
   -1.0445    1.6390    2.5706 H   0  0  0  0  0  0  0  0  0  0  0  0
   -0.2580    6.4451   -0.8107 C   0  0  0  0  0  0  0  0  0  0  0  0
   -0.3340    7.0580    0.0924 H   0  0  0  0  0  0  0  0  0  0  0  0
   -0.8988    6.8856   -1.5821 H   0  0  0  0  0  0  0  0  0  0  0  0
    0.7762    6.5142   -1.1718 H   0  0  0  0  0  0  0  0  0  0  0  0
    1.5682    1.1604   -2.1310 Cl  0  0  0  0  0  0  0  0  0  0  0  0
    1.3388    0.3154    2.5414 Cl  0  0  0  0  0  0  0  0  0  0  0  0
    2.1673   -1.2433   -0.1068 C   0  0  0  0  0  3  0  0  0  0  0  0
    1.6544   -2.1753   -0.3279 H   0  0  0  0  0  0  0  0  0  0  0  0
    3.6022   -1.3545    0.0043 C   0  0  0  0  0  0  0  0  0  0  0  0
    4.3597   -0.1838    0.2521 C   0  0  0  0  0  0  0  0  0  0  0  0
    5.7447   -0.2413    0.3868 C   0  0  0  0  0  0  0  0  0  0  0  0
    6.3801   -1.4825    0.2707 C   0  0  0  0  0  0  0  0  0  0  0  0
    5.6564   -2.6542    0.0223 C   0  0  0  0  0  0  0  0  0  0  0  0
    4.2735   -2.5872   -0.1098 C   0  0  0  0  0  0  0  0  0  0  0  0
    3.6860   -3.4817   -0.2988 H   0  0  0  0  0  0  0  0  0  0  0  0
    6.1714   -3.6051   -0.0659 H   0  0  0  0  0  0  0  0  0  0  0  0
    7.4599   -1.5268    0.3751 H   0  0  0  0  0  0  0  0  0  0  0  0
    6.3338    0.6467    0.5756 H   0  0  0  0  0  0  0  0  0  0  0  0
    3.5966    0.9443    0.3529 O   0  0  0  0  0  0  0  0  0  0  0  0
   -4.1260    2.0570    0.6508 H   0  0  0  0  0  0  0  0  0  0  0  0
   -3.3518    1.2156    2.0103 H   0  0  0  0  0  0  0  0  0  0  0  0
   -5.0232    0.2327    1.3156 N   0  0  0  0  0  0  0  0  0  0  0  0
   -3.8439    1.0752    1.0460 C   0  0  0  0  0  0  0  0  0  0  0  0
   -5.7255    0.6862    1.8958 H   0  0  0  0  0  0  0  0  0  0  0  0
   -5.7911   -0.5931    0.0700 S   0  0  0  0  0  0  0  0  0  0  0  0
   -4.9613   -2.0417   -0.0611 N   0  0  0  0  0  0  0  0  0  0  0  0
   -7.1222   -0.9130    0.5826 O   0  0  0  0  0  0  0  0  0  0  0  0
   -5.6160    0.0922   -1.2148 O   0  0  0  0  0  0  0  0  0  0  0  0
   -3.2079   -3.0246   -0.5167 H   0  0  0  0  0  0  0  0  0  0  0  0
   -3.5709   -1.6523   -1.5699 H   0  0  0  0  0  0  0  0  0  0  0  0
   -3.5685   -1.9942   -0.5327 C   0  0  0  0  0  0  0  0  0  0  0  0
   -5.0637   -2.5551    0.8136 H   0  0  0  0  0  0  0  0  0  0  0  0
    4.2166    2.2703    0.4433 C   0  0  0  0  0  0  0  0  0  0  0  0
    5.0024    2.1924    1.2007 H   0  0  0  0  0  0  0  0  0  0  0  0
    3.1413    3.2259    0.9316 C   0  0  0  0  0  0  0  0  0  0  0  0
    2.3444    3.3335    0.1892 H   0  0  0  0  0  0  0  0  0  0  0  0
    2.7030    2.8744    1.8687 H   0  0  0  0  0  0  0  0  0  0  0  0
    3.5914    4.2101    1.0972 H   0  0  0  0  0  0  0  0  0  0  0  0
    4.7918    2.6654   -0.9099 C   0  0  0  0  0  0  0  0  0  0  0  0
    5.2760    3.6439   -0.8267 H   0  0  0  0  0  0  0  0  0  0  0  0
    5.5360    1.9462   -1.2626 H   0  0  0  0  0  0  0  0  0  0  0  0
    3.9865    2.7251   -1.6469 H   0  0  0  0  0  0  0  0  0  0  0  0
  1 50  1  0  0  0  0
  2  1  1  1  0  0  0
  2  3  1  0  0  0  0
  4  8  1  6  0  0  0
  4  3  1  0  0  0  0
  4  5  1  0  0  0  0
  4 67  1  0  0  0  0
  5  7  1  1  0  0  0
  6  2  1  0  0  0  0
  6  5  1  0  0  0  0
  9  6  1  0  0  0  0
  9 10  1  0  0  0  0
 10 21  1  0  0  0  0
 11 10  2  0  0  0  0
 11 15  1  0  0  0  0
 12 11  1  0  0  0  0
 13 14  1  0  0  0  0
 13 12  2  0  0  0  0
 14  9  2  0  0  0  0
 16 13  1  0  0  0  0
 17 19  1  0  0  0  0
 17 14  1  0  0  0  0
 18 17  1  0  0  0  0
 20 17  1  0  0  0  0
 21 24  1  0  0  0  0
 21 23  1  0  0  0  0
 21 22  1  0  0  0  0
 25 12  1  0  0  0  0
 25 27  1  0  0  0  0
 26 25  1  0  0  0  0
 28 25  1  0  0  0  0
 29  3  1  0  0  0  0
 29 30  1  0  0  0  0
 30 42  1  0  0  0  0
 31 30  2  0  0  0  0
 31 32  1  0  0  0  0
 33 34  1  0  0  0  0
 33 36  2  0  0  0  0
 34 29  2  0  0  0  0
 35 33  1  0  0  0  0
 36 31  1  0  0  0  0
 37 40  1  0  0  0  0
 37 34  1  0  0  0  0
 38 37  1  0  0  0  0
 39 37  1  0  0  0  0
 42 44  1  0  0  0  0
 42 41  1  0  0  0  0
 42 43  1  0  0  0  0
 45 36  1  0  0  0  0
 45 46  1  0  0  0  0
 47 45  1  0  0  0  0
 48 45  1  0  0  0  0
 49  1  1  0  0  0  0
 51 53  1  0  0  0  0
 51  1  1  0  0  0  0
 52 51  1  0  0  0  0
 53 54  1  0  0  0  0
 54 63  1  0  0  0  0
 54 55  2  0  0  0  0
 55 62  1  0  0  0  0
 56 61  1  0  0  0  0
 56 55  1  0  0  0  0
 57 56  2  0  0  0  0
 58 53  2  0  0  0  0
 58 57  1  0  0  0  0
 59 58  1  0  0  0  0
 60 57  1  0  0  0  0
 63 77  1  0  0  0  0
 64 67  1  0  0  0  0
 66 68  1  0  0  0  0
 67 66  1  0  0  0  0
 67 65  1  0  0  0  0
 69 71  2  0  0  0  0
 69 66  1  0  0  0  0
 70 69  1  0  0  0  0
 70 76  1  0  0  0  0
 72 69  2  0  0  0  0
 74 75  1  0  0  0  0
 75 73  1  0  0  0  0
 75 70  1  0  0  0  0
 75  5  1  0  0  0  0
 77 79  1  0  0  0  0
 77 78  1  0  0  0  0
 79 82  1  0  0  0  0
 79 81  1  0  0  0  0
 80 79  1  0  0  0  0
 83 84  1  0  0  0  0
 83 77  1  0  0  0  0
 85 83  1  0  0  0  0
 86 83  1  0  0  0  0
M  END
$$$$
Ru_SIMes_sulfamide_ArOiPr_NH2.log
 OpenBabel10172311093D

 86 90  0  0  1  0  0  0  0  0999 V2000
    1.3819   -0.3350   -0.1193 Ru  0  0  0  0  0  0  0  0  0  0  0  0
   -0.5609   -0.0013    0.0848 C   0  0  1  0  0  3  0  0  0  0  0  0
   -1.2947    1.1369    0.1435 N   0  0  0  0  0  0  0  0  0  0  0  0
   -2.7231    0.8888   -0.1371 C   0  0  1  0  0  0  0  0  0  0  0  0
   -2.8469   -0.6066    0.1752 C   0  0  2  0  0  0  0  0  0  0  0  0
   -1.4481   -1.0413    0.0105 N   0  0  0  0  0  0  0  0  0  0  0  0
   -3.1632   -0.7621    1.2150 H   0  0  0  0  0  0  0  0  0  0  0  0
   -2.8939    1.0404   -1.2072 H   0  0  0  0  0  0  0  0  0  0  0  0
   -1.0788   -2.4173    0.1985 C   0  0  0  0  0  0  0  0  0  0  0  0
   -0.9984   -2.9316    1.5096 C   0  0  0  0  0  0  0  0  0  0  0  0
   -0.5831   -4.2522    1.6777 C   0  0  0  0  0  0  0  0  0  0  0  0
   -0.2511   -5.0684    0.5890 C   0  0  0  0  0  0  0  0  0  0  0  0
   -0.3941   -4.5460   -0.6966 C   0  0  0  0  0  0  0  0  0  0  0  0
   -0.8260   -3.2317   -0.9192 C   0  0  0  0  0  0  0  0  0  0  0  0
   -0.5059   -4.6521    2.6861 H   0  0  0  0  0  0  0  0  0  0  0  0
   -0.1789   -5.1762   -1.5563 H   0  0  0  0  0  0  0  0  0  0  0  0
   -1.0743   -2.7699   -2.3327 C   0  0  0  0  0  0  0  0  0  0  0  0
   -2.0247   -3.1811   -2.6977 H   0  0  0  0  0  0  0  0  0  0  0  0
   -1.1144   -1.6851   -2.4083 H   0  0  0  0  0  0  0  0  0  0  0  0
   -0.2862   -3.1261   -3.0028 H   0  0  0  0  0  0  0  0  0  0  0  0
   -1.3818   -2.1065    2.7119 C   0  0  0  0  0  0  0  0  0  0  0  0
   -0.9073   -2.5015    3.6139 H   0  0  0  0  0  0  0  0  0  0  0  0
   -2.4675   -2.1331    2.8729 H   0  0  0  0  0  0  0  0  0  0  0  0
   -1.0787   -1.0644    2.6037 H   0  0  0  0  0  0  0  0  0  0  0  0
    0.2552   -6.4731    0.8074 C   0  0  0  0  0  0  0  0  0  0  0  0
    0.1289   -7.0874   -0.0893 H   0  0  0  0  0  0  0  0  0  0  0  0
   -0.2672   -6.9609    1.6372 H   0  0  0  0  0  0  0  0  0  0  0  0
    1.3243   -6.4682    1.0563 H   0  0  0  0  0  0  0  0  0  0  0  0
   -0.7939    2.4654    0.2941 C   0  0  0  0  0  0  0  0  0  0  0  0
   -0.4161    2.8957    1.5787 C   0  0  0  0  0  0  0  0  0  0  0  0
    0.1039    4.1858    1.7147 C   0  0  0  0  0  0  0  0  0  0  0  0
    0.4150    4.5249    2.6996 H   0  0  0  0  0  0  0  0  0  0  0  0
   -0.1513    4.5836   -0.6420 C   0  0  0  0  0  0  0  0  0  0  0  0
   -0.6795    3.3022   -0.8277 C   0  0  0  0  0  0  0  0  0  0  0  0
   -0.0400    5.2341   -1.5061 H   0  0  0  0  0  0  0  0  0  0  0  0
    0.2466    5.0431    0.6175 C   0  0  0  0  0  0  0  0  0  0  0  0
   -1.0833    2.8319   -2.2020 C   0  0  0  0  0  0  0  0  0  0  0  0
   -0.6681    3.4908   -2.9697 H   0  0  0  0  0  0  0  0  0  0  0  0
   -2.1741    2.8370   -2.3238 H   0  0  0  0  0  0  0  0  0  0  0  0
   -0.7283    1.8144   -2.3914 H   0  0  0  0  0  0  0  0  0  0  0  0
   -1.4604    1.4905    2.8632 H   0  0  0  0  0  0  0  0  0  0  0  0
   -0.4805    1.9697    2.7667 C   0  0  0  0  0  0  0  0  0  0  0  0
   -0.2765    2.5169    3.6912 H   0  0  0  0  0  0  0  0  0  0  0  0
    0.2565    1.1636    2.6726 H   0  0  0  0  0  0  0  0  0  0  0  0
    0.7939    6.4383    0.7940 C   0  0  0  0  0  0  0  0  0  0  0  0
    1.5263    6.4793    1.6065 H   0  0  0  0  0  0  0  0  0  0  0  0
   -0.0087    7.1450    1.0421 H   0  0  0  0  0  0  0  0  0  0  0  0
    1.2732    6.7967   -0.1223 H   0  0  0  0  0  0  0  0  0  0  0  0
    1.7870   -1.1385    2.1064 Cl  0  0  0  0  0  0  0  0  0  0  0  0
    1.1835   -0.2041   -2.5156 Cl  0  0  0  0  0  0  0  0  0  0  0  0
    2.0889    1.3449    0.1092 C   0  0  0  0  0  3  0  0  0  0  0  0
    1.5329    2.2372    0.3860 H   0  0  0  0  0  0  0  0  0  0  0  0
    3.5025    1.5508   -0.0984 C   0  0  0  0  0  0  0  0  0  0  0  0
    4.3119    0.4352   -0.4254 C   0  0  0  0  0  0  0  0  0  0  0  0
    5.6770    0.5829   -0.6584 C   0  0  0  0  0  0  0  0  0  0  0  0
    6.2402    1.8603   -0.5625 C   0  0  0  0  0  0  0  0  0  0  0  0
    5.4647    2.9790   -0.2378 C   0  0  0  0  0  0  0  0  0  0  0  0
    4.1022    2.8217   -0.0071 C   0  0  0  0  0  0  0  0  0  0  0  0
    3.4756    3.6740    0.2421 H   0  0  0  0  0  0  0  0  0  0  0  0
    5.9241    3.9594   -0.1676 H   0  0  0  0  0  0  0  0  0  0  0  0
    7.3044    1.9755   -0.7443 H   0  0  0  0  0  0  0  0  0  0  0  0
    6.3045   -0.2627   -0.9085 H   0  0  0  0  0  0  0  0  0  0  0  0
    3.6147   -0.7370   -0.4968 O   0  0  0  0  0  0  0  0  0  0  0  0
   -3.7150    2.7849    0.1550 H   0  0  0  0  0  0  0  0  0  0  0  0
   -3.2675    1.9585    1.6587 H   0  0  0  0  0  0  0  0  0  0  0  0
   -4.9924    1.2062    0.8239 N   0  0  0  0  0  0  0  0  0  0  0  0
   -3.6597    1.8098    0.6504 C   0  0  0  0  0  0  0  0  0  0  0  0
   -5.6536    1.8167    1.2995 H   0  0  0  0  0  0  0  0  0  0  0  0
   -5.7640    0.4833   -0.4853 S   0  0  0  0  0  0  0  0  0  0  0  0
   -5.2315   -1.1028   -0.4722 N   0  0  0  0  0  0  0  0  0  0  0  0
   -7.1827    0.4570   -0.1340 O   0  0  0  0  0  0  0  0  0  0  0  0
   -5.3034    1.0578   -1.7535 O   0  0  0  0  0  0  0  0  0  0  0  0
   -3.6660   -2.4281   -0.6569 H   0  0  0  0  0  0  0  0  0  0  0  0
   -3.6135   -1.0799   -1.7985 H   0  0  0  0  0  0  0  0  0  0  0  0
   -3.8091   -1.3502   -0.7587 C   0  0  0  0  0  0  0  0  0  0  0  0
   -5.5421   -1.5429    0.3932 H   0  0  0  0  0  0  0  0  0  0  0  0
    4.3046   -2.0201   -0.6649 C   0  0  0  0  0  0  0  0  0  0  0  0
    5.0247   -1.8788   -1.4765 H   0  0  0  0  0  0  0  0  0  0  0  0
    3.2550   -3.0311   -1.0947 C   0  0  0  0  0  0  0  0  0  0  0  0
    2.5263   -3.2072   -0.2969 H   0  0  0  0  0  0  0  0  0  0  0  0
    2.7242   -2.6883   -1.9861 H   0  0  0  0  0  0  0  0  0  0  0  0
    3.7512   -3.9805   -1.3209 H   0  0  0  0  0  0  0  0  0  0  0  0
    5.0031   -2.4050    0.6321 C   0  0  0  0  0  0  0  0  0  0  0  0
    5.5409   -3.3479    0.4886 H   0  0  0  0  0  0  0  0  0  0  0  0
    5.7244   -1.6462    0.9474 H   0  0  0  0  0  0  0  0  0  0  0  0
    4.2604   -2.5324    1.4243 H   0  0  0  0  0  0  0  0  0  0  0  0
  1 51  1  0  0  0  0
  1 49  1  0  0  0  0
  2  1  1  6  0  0  0
  2  3  1  0  0  0  0
  3 29  1  0  0  0  0
  4  8  1  6  0  0  0
  4  3  1  0  0  0  0
  4  5  1  0  0  0  0
  4 67  1  0  0  0  0
  5  7  1  1  0  0  0
  6  2  1  0  0  0  0
  6  5  1  0  0  0  0
  6  9  1  0  0  0  0
  9 10  1  0  0  0  0
 10 11  2  0  0  0  0
 10 21  1  0  0  0  0
 11 15  1  0  0  0  0
 12 25  1  0  0  0  0
 12 11  1  0  0  0  0
 13 12  2  0  0  0  0
 14 13  1  0  0  0  0
 14  9  2  0  0  0  0
 16 13  1  0  0  0  0
 17 14  1  0  0  0  0
 18 17  1  0  0  0  0
 19 17  1  0  0  0  0
 20 17  1  0  0  0  0
 21 23  1  0  0  0  0
 21 22  1  0  0  0  0
 24 21  1  0  0  0  0
 25 28  1  0  0  0  0
 25 27  1  0  0  0  0
 26 25  1  0  0  0  0
 29 30  1  0  0  0  0
 30 31  2  0  0  0  0
 30 42  1  0  0  0  0
 31 32  1  0  0  0  0
 33 36  2  0  0  0  0
 34 33  1  0  0  0  0
 34 29  2  0  0  0  0
 35 33  1  0  0  0  0
 36 45  1  0  0  0  0
 36 31  1  0  0  0  0
 37 34  1  0  0  0  0
 38 37  1  0  0  0  0
 39 37  1  0  0  0  0
 40 37  1  0  0  0  0
 42 41  1  0  0  0  0
 42 43  1  0  0  0  0
 44 42  1  0  0  0  0
 45 47  1  0  0  0  0
 45 46  1  0  0  0  0
 48 45  1  0  0  0  0
 50  1  1  0  0  0  0
 51 52  1  0  0  0  0
 53 58  1  0  0  0  0
 53 51  1  0  0  0  0
 54 53  2  0  0  0  0
 55 56  2  0  0  0  0
 55 54  1  0  0  0  0
 56 57  1  0  0  0  0
 57 60  1  0  0  0  0
 57 58  2  0  0  0  0
 58 59  1  0  0  0  0
 61 56  1  0  0  0  0
 62 55  1  0  0  0  0
 63 54  1  0  0  0  0
 64 67  1  0  0  0  0
 66 68  1  0  0  0  0
 67 66  1  0  0  0  0
 67 65  1  0  0  0  0
 69 70  1  0  0  0  0
 69 71  2  0  0  0  0
 69 66  1  0  0  0  0
 70 76  1  0  0  0  0
 72 69  2  0  0  0  0
 74 75  1  0  0  0  0
 75 73  1  0  0  0  0
 75 70  1  0  0  0  0
 75  5  1  0  0  0  0
 77 63  1  0  0  0  0
 77 83  1  0  0  0  0
 78 77  1  0  0  0  0
 79 77  1  0  0  0  0
 79 80  1  0  0  0  0
 81 79  1  0  0  0  0
 82 79  1  0  0  0  0
 83 85  1  0  0  0  0
 83 86  1  0  0  0  0
 84 83  1  0  0  0  0
M  END
$$$$
Ru_SIMes_sulfamide_ArOiPr_NH_iso.log
 OpenBabel10172311093D

 86 90  0  0  1  0  0  0  0  0999 V2000
    1.3710    0.3883    0.1357 Ru  0  0  0  0  0  0  0  0  0  0  0  0
   -0.5588   -0.0561    0.0416 C   0  0  2  0  0  3  0  0  0  0  0  0
   -1.4947    0.9332    0.1671 N   0  0  0  0  0  0  0  0  0  0  0  0
   -2.8678    0.4157    0.0570 C   0  0  1  0  0  0  0  0  0  0  0  0
   -2.6646   -1.0794    0.3300 C   0  0  2  0  0  0  0  0  0  0  0  0
   -1.2311   -1.2348    0.0031 N   0  0  0  0  0  0  0  0  0  0  0  0
   -2.8214   -1.3013    1.3921 H   0  0  0  0  0  0  0  0  0  0  0  0
   -3.2172    0.5504   -0.9706 H   0  0  0  0  0  0  0  0  0  0  0  0
   -0.6438   -2.5278   -0.1527 C   0  0  0  0  0  0  0  0  0  0  0  0
   -0.3888   -3.3255    0.9737 C   0  0  0  0  0  0  0  0  0  0  0  0
    0.2374   -4.5611    0.7767 C   0  0  0  0  0  0  0  0  0  0  0  0
    0.5938   -5.0141   -0.4971 C   0  0  0  0  0  0  0  0  0  0  0  0
    0.3037   -4.2002   -1.5988 C   0  0  0  0  0  0  0  0  0  0  0  0
   -0.3166   -2.9571   -1.4516 C   0  0  0  0  0  0  0  0  0  0  0  0
    0.4598   -5.1788    1.6433 H   0  0  0  0  0  0  0  0  0  0  0  0
    0.5782   -4.5352   -2.5960 H   0  0  0  0  0  0  0  0  0  0  0  0
   -0.5486   -2.0703   -2.6483 C   0  0  0  0  0  0  0  0  0  0  0  0
   -1.5852   -1.7225   -2.7033 H   0  0  0  0  0  0  0  0  0  0  0  0
    0.0861   -1.1778   -2.6010 H   0  0  0  0  0  0  0  0  0  0  0  0
   -0.3200   -2.6068   -3.5733 H   0  0  0  0  0  0  0  0  0  0  0  0
   -0.7452   -2.8613    2.3628 C   0  0  0  0  0  0  0  0  0  0  0  0
   -0.2308   -3.4683    3.1132 H   0  0  0  0  0  0  0  0  0  0  0  0
   -1.8223   -2.9532    2.5508 H   0  0  0  0  0  0  0  0  0  0  0  0
   -0.4645   -1.8149    2.5147 H   0  0  0  0  0  0  0  0  0  0  0  0
    1.2536   -6.3582   -0.6852 C   0  0  0  0  0  0  0  0  0  0  0  0
    0.5103   -7.1291   -0.9262 H   0  0  0  0  0  0  0  0  0  0  0  0
    1.7743   -6.6767    0.2231 H   0  0  0  0  0  0  0  0  0  0  0  0
    1.9758   -6.3354   -1.5077 H   0  0  0  0  0  0  0  0  0  0  0  0
   -1.2257    2.3273   -0.0642 C   0  0  0  0  0  0  0  0  0  0  0  0
   -0.9528    3.1785    1.0202 C   0  0  0  0  0  0  0  0  0  0  0  0
   -0.6355    4.5166    0.7489 C   0  0  0  0  0  0  0  0  0  0  0  0
   -0.4066    5.1760    1.5828 H   0  0  0  0  0  0  0  0  0  0  0  0
   -0.9666    4.1651   -1.6007 C   0  0  0  0  0  0  0  0  0  0  0  0
   -1.2706    2.8215   -1.3857 C   0  0  0  0  0  0  0  0  0  0  0  0
   -0.9883    4.5498   -2.6177 H   0  0  0  0  0  0  0  0  0  0  0  0
   -0.6236    5.0249   -0.5495 C   0  0  0  0  0  0  0  0  0  0  0  0
   -1.6685    1.9510   -2.5512 C   0  0  0  0  0  0  0  0  0  0  0  0
   -1.2726    2.3596   -3.4845 H   0  0  0  0  0  0  0  0  0  0  0  0
   -2.7610    1.9051   -2.6504 H   0  0  0  0  0  0  0  0  0  0  0  0
   -1.2917    0.9327   -2.4471 H   0  0  0  0  0  0  0  0  0  0  0  0
   -1.9792    3.1203    2.9034 H   0  0  0  0  0  0  0  0  0  0  0  0
   -1.0540    2.7329    2.4569 C   0  0  0  0  0  0  0  0  0  0  0  0
   -0.2199    3.1265    3.0456 H   0  0  0  0  0  0  0  0  0  0  0  0
   -1.0453    1.6489    2.5517 H   0  0  0  0  0  0  0  0  0  0  0  0
   -0.2462    6.4602   -0.8225 C   0  0  0  0  0  0  0  0  0  0  0  0
   -0.3098    7.0693    0.0843 H   0  0  0  0  0  0  0  0  0  0  0  0
   -0.8962    6.9052   -1.5836 H   0  0  0  0  0  0  0  0  0  0  0  0
    0.7833    6.5295   -1.1967 H   0  0  0  0  0  0  0  0  0  0  0  0
    1.5859    1.1718   -2.1237 Cl  0  0  0  0  0  0  0  0  0  0  0  0
    1.3273    0.2947    2.5406 Cl  0  0  0  0  0  0  0  0  0  0  0  0
    2.1619   -1.2506   -0.1145 C   0  0  0  0  0  3  0  0  0  0  0  0
    1.6447   -2.1775   -0.3463 H   0  0  0  0  0  0  0  0  0  0  0  0
    3.5954   -1.3716    0.0047 C   0  0  0  0  0  0  0  0  0  0  0  0
    4.3585   -0.2074    0.2652 C   0  0  0  0  0  0  0  0  0  0  0  0
    5.7422   -0.2743    0.4085 C   0  0  0  0  0  0  0  0  0  0  0  0
    6.3707   -1.5186    0.2884 C   0  0  0  0  0  0  0  0  0  0  0  0
    5.6414   -2.6841    0.0276 C   0  0  0  0  0  0  0  0  0  0  0  0
    4.2598   -2.6077   -0.1132 C   0  0  0  0  0  0  0  0  0  0  0  0
    3.6680   -3.4973   -0.3118 H   0  0  0  0  0  0  0  0  0  0  0  0
    6.1510   -3.6376   -0.0634 H   0  0  0  0  0  0  0  0  0  0  0  0
    7.4495   -1.5704    0.3997 H   0  0  0  0  0  0  0  0  0  0  0  0
    6.3355    0.6089    0.6069 H   0  0  0  0  0  0  0  0  0  0  0  0
    3.6016    0.9247    0.3684 O   0  0  0  0  0  0  0  0  0  0  0  0
   -4.1784    2.0574    0.5858 H   0  0  0  0  0  0  0  0  0  0  0  0
   -3.3542    1.2958    1.9639 H   0  0  0  0  0  0  0  0  0  0  0  0
   -4.9771    0.2120    1.3246 N   0  0  0  0  0  0  0  0  0  0  0  0
   -3.8495    1.1032    1.0109 C   0  0  0  0  0  0  0  0  0  0  0  0
   -5.6413    0.5735    2.0038 H   0  0  0  0  0  0  0  0  0  0  0  0
   -5.7884   -0.5894    0.1099 S   0  0  0  0  0  0  0  0  0  0  0  0
   -4.9272   -2.0463    0.0803 N   0  0  0  0  0  0  0  0  0  0  0  0
   -7.1234   -0.9176    0.6106 O   0  0  0  0  0  0  0  0  0  0  0  0
   -5.6351    0.1312   -1.1639 O   0  0  0  0  0  0  0  0  0  0  0  0
   -3.1911   -3.0151   -0.4583 H   0  0  0  0  0  0  0  0  0  0  0  0
   -3.5786   -1.6653   -1.5448 H   0  0  0  0  0  0  0  0  0  0  0  0
   -3.5713   -1.9920   -0.4975 C   0  0  0  0  0  0  0  0  0  0  0  0
   -5.5097   -2.7304   -0.4034 H   0  0  0  0  0  0  0  0  0  0  0  0
    4.2290    2.2460    0.4727 C   0  0  0  0  0  0  0  0  0  0  0  0
    5.0093    2.1578    1.2349 H   0  0  0  0  0  0  0  0  0  0  0  0
    3.1566    3.2049    0.9608 C   0  0  0  0  0  0  0  0  0  0  0  0
    2.3660    3.3242    0.2134 H   0  0  0  0  0  0  0  0  0  0  0  0
    2.7089    2.8487    1.8918 H   0  0  0  0  0  0  0  0  0  0  0  0
    3.6121    4.1846    1.1380 H   0  0  0  0  0  0  0  0  0  0  0  0
    4.8159    2.6475   -0.8736 C   0  0  0  0  0  0  0  0  0  0  0  0
    5.3057    3.6222   -0.7799 H   0  0  0  0  0  0  0  0  0  0  0  0
    5.5579    1.9261   -1.2266 H   0  0  0  0  0  0  0  0  0  0  0  0
    4.0160    2.7178   -1.6157 H   0  0  0  0  0  0  0  0  0  0  0  0
  1 50  1  0  0  0  0
  2  1  1  1  0  0  0
  2  3  1  0  0  0  0
  4  8  1  6  0  0  0
  4  3  1  0  0  0  0
  4  5  1  0  0  0  0
  4 67  1  0  0  0  0
  5  7  1  1  0  0  0
  6  2  1  0  0  0  0
  6  5  1  0  0  0  0
  9  6  1  0  0  0  0
  9 10  1  0  0  0  0
 10 21  1  0  0  0  0
 11 10  2  0  0  0  0
 11 15  1  0  0  0  0
 12 11  1  0  0  0  0
 13 14  1  0  0  0  0
 13 12  2  0  0  0  0
 14  9  2  0  0  0  0
 16 13  1  0  0  0  0
 17 19  1  0  0  0  0
 17 14  1  0  0  0  0
 18 17  1  0  0  0  0
 20 17  1  0  0  0  0
 21 24  1  0  0  0  0
 21 23  1  0  0  0  0
 21 22  1  0  0  0  0
 25 12  1  0  0  0  0
 25 27  1  0  0  0  0
 26 25  1  0  0  0  0
 28 25  1  0  0  0  0
 29  3  1  0  0  0  0
 29 30  1  0  0  0  0
 30 42  1  0  0  0  0
 31 30  2  0  0  0  0
 31 32  1  0  0  0  0
 33 34  1  0  0  0  0
 33 36  2  0  0  0  0
 34 29  2  0  0  0  0
 35 33  1  0  0  0  0
 36 31  1  0  0  0  0
 37 40  1  0  0  0  0
 37 34  1  0  0  0  0
 38 37  1  0  0  0  0
 39 37  1  0  0  0  0
 42 44  1  0  0  0  0
 42 41  1  0  0  0  0
 42 43  1  0  0  0  0
 45 36  1  0  0  0  0
 45 46  1  0  0  0  0
 47 45  1  0  0  0  0
 48 45  1  0  0  0  0
 49  1  1  0  0  0  0
 51 53  1  0  0  0  0
 51  1  1  0  0  0  0
 52 51  1  0  0  0  0
 53 54  1  0  0  0  0
 54 63  1  0  0  0  0
 54 55  2  0  0  0  0
 55 62  1  0  0  0  0
 56 61  1  0  0  0  0
 56 55  1  0  0  0  0
 57 56  2  0  0  0  0
 58 53  2  0  0  0  0
 58 57  1  0  0  0  0
 59 58  1  0  0  0  0
 60 57  1  0  0  0  0
 63 77  1  0  0  0  0
 64 67  1  0  0  0  0
 66 68  1  0  0  0  0
 67 66  1  0  0  0  0
 67 65  1  0  0  0  0
 69 71  2  0  0  0  0
 69 66  1  0  0  0  0
 70 69  1  0  0  0  0
 72 69  2  0  0  0  0
 74 75  1  0  0  0  0
 75 73  1  0  0  0  0
 75 70  1  0  0  0  0
 75  5  1  0  0  0  0
 76 70  1  0  0  0  0
 77 79  1  0  0  0  0
 77 78  1  0  0  0  0
 79 82  1  0  0  0  0
 79 81  1  0  0  0  0
 80 79  1  0  0  0  0
 83 84  1  0  0  0  0
 83 77  1  0  0  0  0
 85 83  1  0  0  0  0
 86 83  1  0  0  0  0
M  END
$$$$
Ru_SIMes_sulfamide_ArOiPr_NH.log
 OpenBabel10172311093D

 86 90  0  0  1  0  0  0  0  0999 V2000
   -1.3803    0.3419   -0.1210 Ru  0  0  0  0  0  0  0  0  0  0  0  0
    0.5604   -0.0061    0.0767 C   0  0  1  0  0  3  0  0  0  0  0  0
    1.2853   -1.1500    0.1326 N   0  0  0  0  0  0  0  0  0  0  0  0
    2.7139   -0.9107   -0.1499 C   0  0  1  0  0  0  0  0  0  0  0  0
    2.8507    0.5808    0.1768 C   0  0  2  0  0  0  0  0  0  0  0  0
    1.4560    1.0271    0.0019 N   0  0  0  0  0  0  0  0  0  0  0  0
    3.1632    0.7251    1.2178 H   0  0  0  0  0  0  0  0  0  0  0  0
    2.8816   -1.0534   -1.2219 H   0  0  0  0  0  0  0  0  0  0  0  0
    1.0952    2.4052    0.1917 C   0  0  0  0  0  0  0  0  0  0  0  0
    1.0175    2.9194    1.5030 C   0  0  0  0  0  0  0  0  0  0  0  0
    0.6091    4.2422    1.6713 C   0  0  0  0  0  0  0  0  0  0  0  0
    0.2823    5.0607    0.5828 C   0  0  0  0  0  0  0  0  0  0  0  0
    0.4236    4.5382   -0.7030 C   0  0  0  0  0  0  0  0  0  0  0  0
    0.8484    3.2218   -0.9258 C   0  0  0  0  0  0  0  0  0  0  0  0
    0.5338    4.6421    2.6798 H   0  0  0  0  0  0  0  0  0  0  0  0
    0.2128    5.1702   -1.5625 H   0  0  0  0  0  0  0  0  0  0  0  0
    1.0967    2.7593   -2.3391 C   0  0  0  0  0  0  0  0  0  0  0  0
    2.0510    3.1640   -2.7012 H   0  0  0  0  0  0  0  0  0  0  0  0
    1.1297    1.6743   -2.4151 H   0  0  0  0  0  0  0  0  0  0  0  0
    0.3130    3.1218   -3.0109 H   0  0  0  0  0  0  0  0  0  0  0  0
    1.3966    2.0924    2.7052 C   0  0  0  0  0  0  0  0  0  0  0  0
    0.9247    2.4902    3.6073 H   0  0  0  0  0  0  0  0  0  0  0  0
    2.4825    2.1128    2.8655 H   0  0  0  0  0  0  0  0  0  0  0  0
    1.0875    1.0519    2.5973 H   0  0  0  0  0  0  0  0  0  0  0  0
   -0.2162    6.4681    0.8015 C   0  0  0  0  0  0  0  0  0  0  0  0
   -0.0863    7.0820   -0.0949 H   0  0  0  0  0  0  0  0  0  0  0  0
    0.3086    6.9527    1.6317 H   0  0  0  0  0  0  0  0  0  0  0  0
   -1.2854    6.4691    1.0502 H   0  0  0  0  0  0  0  0  0  0  0  0
    0.7768   -2.4755    0.2828 C   0  0  0  0  0  0  0  0  0  0  0  0
    0.4006   -2.9053    1.5681 C   0  0  0  0  0  0  0  0  0  0  0  0
   -0.1277   -4.1920    1.7039 C   0  0  0  0  0  0  0  0  0  0  0  0
   -0.4377   -4.5307    2.6893 H   0  0  0  0  0  0  0  0  0  0  0  0
    0.1173   -4.5879   -0.6544 C   0  0  0  0  0  0  0  0  0  0  0  0
    0.6535   -3.3097   -0.8398 C   0  0  0  0  0  0  0  0  0  0  0  0
   -0.0013   -5.2363   -1.5190 H   0  0  0  0  0  0  0  0  0  0  0  0
   -0.2800   -5.0465    0.6057 C   0  0  0  0  0  0  0  0  0  0  0  0
    1.0556   -2.8395   -2.2145 C   0  0  0  0  0  0  0  0  0  0  0  0
    0.6380   -3.4974   -2.9819 H   0  0  0  0  0  0  0  0  0  0  0  0
    2.1462   -2.8460   -2.3382 H   0  0  0  0  0  0  0  0  0  0  0  0
    0.7021   -1.8212   -2.4026 H   0  0  0  0  0  0  0  0  0  0  0  0
    1.4614   -1.5121    2.8522 H   0  0  0  0  0  0  0  0  0  0  0  0
    0.4766   -1.9816    2.7573 C   0  0  0  0  0  0  0  0  0  0  0  0
    0.2696   -2.5282    3.6815 H   0  0  0  0  0  0  0  0  0  0  0  0
   -0.2529   -1.1684    2.6662 H   0  0  0  0  0  0  0  0  0  0  0  0
   -0.8365   -6.4380    0.7819 C   0  0  0  0  0  0  0  0  0  0  0  0
   -1.5666   -6.4751    1.5966 H   0  0  0  0  0  0  0  0  0  0  0  0
   -0.0381   -7.1508    1.0264 H   0  0  0  0  0  0  0  0  0  0  0  0
   -1.3212   -6.7917   -0.1334 H   0  0  0  0  0  0  0  0  0  0  0  0
   -1.7745    1.1413    2.1082 Cl  0  0  0  0  0  0  0  0  0  0  0  0
   -1.1889    0.2165   -2.5183 Cl  0  0  0  0  0  0  0  0  0  0  0  0
   -2.0971   -1.3341    0.1050 C   0  0  0  0  0  3  0  0  0  0  0  0
   -1.5455   -2.2308    0.3762 H   0  0  0  0  0  0  0  0  0  0  0  0
   -3.5130   -1.5306   -0.0965 C   0  0  0  0  0  0  0  0  0  0  0  0
   -4.3169   -0.4093   -0.4173 C   0  0  0  0  0  0  0  0  0  0  0  0
   -5.6840   -0.5480   -0.6438 C   0  0  0  0  0  0  0  0  0  0  0  0
   -6.2548   -1.8219   -0.5474 C   0  0  0  0  0  0  0  0  0  0  0  0
   -5.4848   -2.9462   -0.2288 C   0  0  0  0  0  0  0  0  0  0  0  0
   -4.1201   -2.7979   -0.0048 C   0  0  0  0  0  0  0  0  0  0  0  0
   -3.4977   -3.6546    0.2396 H   0  0  0  0  0  0  0  0  0  0  0  0
   -5.9501   -3.9238   -0.1582 H   0  0  0  0  0  0  0  0  0  0  0  0
   -7.3206   -1.9301   -0.7240 H   0  0  0  0  0  0  0  0  0  0  0  0
   -6.3075    0.3020   -0.8890 H   0  0  0  0  0  0  0  0  0  0  0  0
   -3.6128    0.7587   -0.4899 O   0  0  0  0  0  0  0  0  0  0  0  0
    3.7478   -2.7959    0.1140 H   0  0  0  0  0  0  0  0  0  0  0  0
    3.2525   -2.0156    1.6282 H   0  0  0  0  0  0  0  0  0  0  0  0
    4.9578   -1.1847    0.8391 N   0  0  0  0  0  0  0  0  0  0  0  0
    3.6550   -1.8345    0.6298 C   0  0  0  0  0  0  0  0  0  0  0  0
    5.6143   -1.7152    1.4061 H   0  0  0  0  0  0  0  0  0  0  0  0
    5.7639   -0.5035   -0.4546 S   0  0  0  0  0  0  0  0  0  0  0  0
    5.2185    1.0926   -0.3406 N   0  0  0  0  0  0  0  0  0  0  0  0
    7.1885   -0.4716   -0.1231 O   0  0  0  0  0  0  0  0  0  0  0  0
    5.3130   -1.1218   -1.7115 O   0  0  0  0  0  0  0  0  0  0  0  0
    3.6601    2.4092   -0.6169 H   0  0  0  0  0  0  0  0  0  0  0  0
    3.6262    1.0710   -1.7835 H   0  0  0  0  0  0  0  0  0  0  0  0
    3.8181    1.3348   -0.7363 C   0  0  0  0  0  0  0  0  0  0  0  0
    5.8637    1.6711   -0.8796 H   0  0  0  0  0  0  0  0  0  0  0  0
   -4.2961    2.0462   -0.6508 C   0  0  0  0  0  0  0  0  0  0  0  0
   -5.0207    1.9114   -1.4595 H   0  0  0  0  0  0  0  0  0  0  0  0
   -3.2427    3.0523   -1.0826 C   0  0  0  0  0  0  0  0  0  0  0  0
   -2.5101    3.2230   -0.2873 H   0  0  0  0  0  0  0  0  0  0  0  0
   -2.7172    2.7083   -1.9767 H   0  0  0  0  0  0  0  0  0  0  0  0
   -3.7346    4.0048   -1.3052 H   0  0  0  0  0  0  0  0  0  0  0  0
   -4.9865    2.4316    0.6503 C   0  0  0  0  0  0  0  0  0  0  0  0
   -5.5196    3.3779    0.5117 H   0  0  0  0  0  0  0  0  0  0  0  0
   -5.7107    1.6761    0.9671 H   0  0  0  0  0  0  0  0  0  0  0  0
   -4.2396    2.5528    1.4396 H   0  0  0  0  0  0  0  0  0  0  0  0
  1 51  1  0  0  0  0
  1 49  1  0  0  0  0
  2  1  1  6  0  0  0
  2  3  1  0  0  0  0
  3 29  1  0  0  0  0
  4  8  1  6  0  0  0
  4  3  1  0  0  0  0
  4  5  1  0  0  0  0
  4 67  1  0  0  0  0
  5  7  1  1  0  0  0
  6  2  1  0  0  0  0
  6  5  1  0  0  0  0
  6  9  1  0  0  0  0
  9 10  1  0  0  0  0
 10 11  2  0  0  0  0
 10 21  1  0  0  0  0
 11 15  1  0  0  0  0
 12 25  1  0  0  0  0
 12 11  1  0  0  0  0
 13 12  2  0  0  0  0
 14 13  1  0  0  0  0
 14  9  2  0  0  0  0
 16 13  1  0  0  0  0
 17 14  1  0  0  0  0
 18 17  1  0  0  0  0
 19 17  1  0  0  0  0
 20 17  1  0  0  0  0
 21 23  1  0  0  0  0
 21 22  1  0  0  0  0
 24 21  1  0  0  0  0
 25 28  1  0  0  0  0
 25 27  1  0  0  0  0
 26 25  1  0  0  0  0
 29 30  1  0  0  0  0
 30 31  2  0  0  0  0
 30 42  1  0  0  0  0
 31 32  1  0  0  0  0
 33 36  2  0  0  0  0
 34 33  1  0  0  0  0
 34 29  2  0  0  0  0
 35 33  1  0  0  0  0
 36 45  1  0  0  0  0
 36 31  1  0  0  0  0
 37 34  1  0  0  0  0
 38 37  1  0  0  0  0
 39 37  1  0  0  0  0
 40 37  1  0  0  0  0
 42 41  1  0  0  0  0
 42 43  1  0  0  0  0
 44 42  1  0  0  0  0
 45 47  1  0  0  0  0
 45 46  1  0  0  0  0
 48 45  1  0  0  0  0
 50  1  1  0  0  0  0
 51 52  1  0  0  0  0
 53 58  1  0  0  0  0
 53 51  1  0  0  0  0
 54 53  2  0  0  0  0
 55 56  2  0  0  0  0
 55 54  1  0  0  0  0
 56 57  1  0  0  0  0
 57 60  1  0  0  0  0
 57 58  2  0  0  0  0
 58 59  1  0  0  0  0
 61 56  1  0  0  0  0
 62 55  1  0  0  0  0
 63 54  1  0  0  0  0
 64 67  1  0  0  0  0
 66 68  1  0  0  0  0
 67 66  1  0  0  0  0
 67 65  1  0  0  0  0
 69 70  1  0  0  0  0
 69 71  2  0  0  0  0
 69 66  1  0  0  0  0
 72 69  2  0  0  0  0
 74 75  1  0  0  0  0
 75 73  1  0  0  0  0
 75 70  1  0  0  0  0
 75  5  1  0  0  0  0
 76 70  1  0  0  0  0
 77 63  1  0  0  0  0
 77 83  1  0  0  0  0
 78 77  1  0  0  0  0
 79 77  1  0  0  0  0
 79 80  1  0  0  0  0
 81 79  1  0  0  0  0
 82 79  1  0  0  0  0
 83 85  1  0  0  0  0
 83 86  1  0  0  0  0
 84 83  1  0  0  0  0
M  END
$$$$
Ru_SIMes_sulfamide_ArOiPr_SO_iso.log
 OpenBabel10172311093D

 86 90  0  0  1  0  0  0  0  0999 V2000
    1.3772    0.3464    0.1210 Ru  0  0  0  0  0  0  0  0  0  0  0  0
   -0.5621   -0.0085   -0.0777 C   0  0  2  0  0  3  0  0  0  0  0  0
   -1.4617    1.0212   -0.0029 N   0  0  0  0  0  0  0  0  0  0  0  0
   -2.8546    0.5693   -0.1775 C   0  0  1  0  0  0  0  0  0  0  0  0
   -2.7119   -0.9217    0.1493 C   0  0  2  0  0  0  0  0  0  0  0  0
   -1.2824   -1.1552   -0.1335 N   0  0  0  0  0  0  0  0  0  0  0  0
   -2.8787   -1.0648    1.2214 H   0  0  0  0  0  0  0  0  0  0  0  0
   -3.1679    0.7123   -1.2185 H   0  0  0  0  0  0  0  0  0  0  0  0
   -0.7667   -2.4778   -0.2838 C   0  0  0  0  0  0  0  0  0  0  0  0
   -0.6422   -3.3128    0.8371 C   0  0  0  0  0  0  0  0  0  0  0  0
   -0.1003   -4.5894    0.6503 C   0  0  0  0  0  0  0  0  0  0  0  0
    0.3061   -5.0420   -0.6080 C   0  0  0  0  0  0  0  0  0  0  0  0
    0.1447   -4.1890   -1.7070 C   0  0  0  0  0  0  0  0  0  0  0  0
   -0.3890   -2.9056   -1.5702 C   0  0  0  0  0  0  0  0  0  0  0  0
    0.0145   -5.2403    1.5134 H   0  0  0  0  0  0  0  0  0  0  0  0
    0.4513   -4.5277   -2.6936 H   0  0  0  0  0  0  0  0  0  0  0  0
   -0.4742   -1.9826   -2.7593 C   0  0  0  0  0  0  0  0  0  0  0  0
   -1.4623   -1.5199   -2.8527 H   0  0  0  0  0  0  0  0  0  0  0  0
    0.2499   -1.1644   -2.6691 H   0  0  0  0  0  0  0  0  0  0  0  0
   -0.2645   -2.5276   -3.6838 H   0  0  0  0  0  0  0  0  0  0  0  0
   -1.0527   -2.8487    2.2114 C   0  0  0  0  0  0  0  0  0  0  0  0
   -0.6340   -3.5059    2.9788 H   0  0  0  0  0  0  0  0  0  0  0  0
   -2.1436   -2.8617    2.3313 H   0  0  0  0  0  0  0  0  0  0  0  0
   -0.7055   -1.8289    2.4033 H   0  0  0  0  0  0  0  0  0  0  0  0
    0.9245   -6.4078   -0.7811 C   0  0  0  0  0  0  0  0  0  0  0  0
    0.5204   -6.9187   -1.6618 H   0  0  0  0  0  0  0  0  0  0  0  0
    0.7484   -7.0395    0.0945 H   0  0  0  0  0  0  0  0  0  0  0  0
    2.0101   -6.3304   -0.9228 H   0  0  0  0  0  0  0  0  0  0  0  0
   -1.1063    2.4007   -0.1923 C   0  0  0  0  0  0  0  0  0  0  0  0
   -0.8630    3.2181    0.9253 C   0  0  0  0  0  0  0  0  0  0  0  0
   -0.4437    4.5364    0.7028 C   0  0  0  0  0  0  0  0  0  0  0  0
   -0.2358    5.1691    1.5624 H   0  0  0  0  0  0  0  0  0  0  0  0
   -0.6278    4.2400   -1.6716 C   0  0  0  0  0  0  0  0  0  0  0  0
   -1.0306    2.9155   -1.5035 C   0  0  0  0  0  0  0  0  0  0  0  0
   -0.5540    4.6404   -2.6800 H   0  0  0  0  0  0  0  0  0  0  0  0
   -0.3046    5.0597   -0.5829 C   0  0  0  0  0  0  0  0  0  0  0  0
   -1.4059    2.0869   -2.7060 C   0  0  0  0  0  0  0  0  0  0  0  0
   -0.9355    2.4869   -3.6079 H   0  0  0  0  0  0  0  0  0  0  0  0
   -2.4918    2.1026   -2.8664 H   0  0  0  0  0  0  0  0  0  0  0  0
   -1.0923    1.0479   -2.5981 H   0  0  0  0  0  0  0  0  0  0  0  0
   -2.0649    3.1556    2.7010 H   0  0  0  0  0  0  0  0  0  0  0  0
   -1.1093    2.7544    2.3386 C   0  0  0  0  0  0  0  0  0  0  0  0
   -0.3266    3.1193    3.0103 H   0  0  0  0  0  0  0  0  0  0  0  0
   -1.1386    1.6692    2.4142 H   0  0  0  0  0  0  0  0  0  0  0  0
    0.1877    6.4693   -0.8014 C   0  0  0  0  0  0  0  0  0  0  0  0
    0.0556    7.0823    0.0954 H   0  0  0  0  0  0  0  0  0  0  0  0
   -0.3398    6.9520   -1.6310 H   0  0  0  0  0  0  0  0  0  0  0  0
    1.2567    6.4751   -1.0508 H   0  0  0  0  0  0  0  0  0  0  0  0
    1.7697    1.1502   -2.1068 Cl  0  0  0  0  0  0  0  0  0  0  0  0
    1.1842    0.2178    2.5180 Cl  0  0  0  0  0  0  0  0  0  0  0  0
    2.1010   -1.3266   -0.1064 C   0  0  0  0  0  3  0  0  0  0  0  0
    1.5532   -2.2250   -0.3796 H   0  0  0  0  0  0  0  0  0  0  0  0
    3.5173   -1.5181    0.0964 C   0  0  0  0  0  0  0  0  0  0  0  0
    4.3168   -0.3943    0.4192 C   0  0  0  0  0  0  0  0  0  0  0  0
    5.6842   -0.5283    0.6468 C   0  0  0  0  0  0  0  0  0  0  0  0
    6.2597   -1.8000    0.5496 C   0  0  0  0  0  0  0  0  0  0  0  0
    5.4942   -2.9267    0.2290 C   0  0  0  0  0  0  0  0  0  0  0  0
    4.1292   -2.7832    0.0038 C   0  0  0  0  0  0  0  0  0  0  0  0
    3.5103   -3.6421   -0.2422 H   0  0  0  0  0  0  0  0  0  0  0  0
    5.9630   -3.9025    0.1577 H   0  0  0  0  0  0  0  0  0  0  0  0
    7.3258   -1.9044    0.7270 H   0  0  0  0  0  0  0  0  0  0  0  0
    6.3044    0.3237    0.8935 H   0  0  0  0  0  0  0  0  0  0  0  0
    3.6084    0.7710    0.4922 O   0  0  0  0  0  0  0  0  0  0  0  0
   -3.6714    2.3944    0.6161 H   0  0  0  0  0  0  0  0  0  0  0  0
   -3.6315    1.0566    1.7830 H   0  0  0  0  0  0  0  0  0  0  0  0
   -5.2243    1.0714    0.3406 N   0  0  0  0  0  0  0  0  0  0  0  0
   -3.8249    1.3195    0.7358 C   0  0  0  0  0  0  0  0  0  0  0  0
   -5.8718    1.6473    0.8796 H   0  0  0  0  0  0  0  0  0  0  0  0
   -5.7632   -0.5269    0.4552 S   0  0  0  0  0  0  0  0  0  0  0  0
   -4.9549   -1.2052   -0.8388 N   0  0  0  0  0  0  0  0  0  0  0  0
   -5.3092   -1.1431    1.7120 O   0  0  0  0  0  0  0  0  0  0  0  0
   -7.1881   -0.5008    0.1244 O   0  0  0  0  0  0  0  0  0  0  0  0
   -3.7381   -2.8111   -0.1138 H   0  0  0  0  0  0  0  0  0  0  0  0
   -3.2467   -2.0293   -1.6284 H   0  0  0  0  0  0  0  0  0  0  0  0
   -3.6494   -1.8495   -0.6298 C   0  0  0  0  0  0  0  0  0  0  0  0
   -5.6096   -1.7387   -1.4051 H   0  0  0  0  0  0  0  0  0  0  0  0
    4.2870    2.0608    0.6547 C   0  0  0  0  0  0  0  0  0  0  0  0
    5.0116    1.9278    1.4638 H   0  0  0  0  0  0  0  0  0  0  0  0
    3.2299    3.0628    1.0868 C   0  0  0  0  0  0  0  0  0  0  0  0
    2.4972    3.2315    0.2911 H   0  0  0  0  0  0  0  0  0  0  0  0
    2.7050    2.7161    1.9802 H   0  0  0  0  0  0  0  0  0  0  0  0
    3.7182    4.0168    1.3105 H   0  0  0  0  0  0  0  0  0  0  0  0
    4.9769    2.4497   -0.6456 C   0  0  0  0  0  0  0  0  0  0  0  0
    5.5063    3.3979   -0.5060 H   0  0  0  0  0  0  0  0  0  0  0  0
    5.7042    1.6972   -0.9623 H   0  0  0  0  0  0  0  0  0  0  0  0
    4.2301    2.5686   -1.4353 H   0  0  0  0  0  0  0  0  0  0  0  0
  1 50  1  0  0  0  0
  2  3  1  0  0  0  0
  2  1  1  1  0  0  0
  4  8  1  6  0  0  0
  4  3  1  0  0  0  0
  4  5  1  0  0  0  0
  4 67  1  0  0  0  0
  5  7  1  1  0  0  0
  6  2  1  0  0  0  0
  6  5  1  0  0  0  0
  9  6  1  0  0  0  0
  9 10  1  0  0  0  0
 10 21  1  0  0  0  0
 11 10  2  0  0  0  0
 11 15  1  0  0  0  0
 12 11  1  0  0  0  0
 13 14  1  0  0  0  0
 13 12  2  0  0  0  0
 14  9  2  0  0  0  0
 16 13  1  0  0  0  0
 17 19  1  0  0  0  0
 17 14  1  0  0  0  0
 18 17  1  0  0  0  0
 20 17  1  0  0  0  0
 21 23  1  0  0  0  0
 21 24  1  0  0  0  0
 21 22  1  0  0  0  0
 25 12  1  0  0  0  0
 25 27  1  0  0  0  0
 26 25  1  0  0  0  0
 28 25  1  0  0  0  0
 29  3  1  0  0  0  0
 29 30  1  0  0  0  0
 30 42  1  0  0  0  0
 31 30  2  0  0  0  0
 31 32  1  0  0  0  0
 33 34  1  0  0  0  0
 33 36  2  0  0  0  0
 34 29  2  0  0  0  0
 35 33  1  0  0  0  0
 36 31  1  0  0  0  0
 37 40  1  0  0  0  0
 37 34  1  0  0  0  0
 38 37  1  0  0  0  0
 39 37  1  0  0  0  0
 42 44  1  0  0  0  0
 42 41  1  0  0  0  0
 42 43  1  0  0  0  0
 45 36  1  0  0  0  0
 45 46  1  0  0  0  0
 47 45  1  0  0  0  0
 48 45  1  0  0  0  0
 49  1  1  0  0  0  0
 51 53  1  0  0  0  0
 51  1  1  0  0  0  0
 52 51  1  0  0  0  0
 53 54  1  0  0  0  0
 54 63  1  0  0  0  0
 54 55  2  0  0  0  0
 55 62  1  0  0  0  0
 56 55  1  0  0  0  0
 56 61  1  0  0  0  0
 57 56  2  0  0  0  0
 58 53  2  0  0  0  0
 58 57  1  0  0  0  0
 59 58  1  0  0  0  0
 60 57  1  0  0  0  0
 63 77  1  0  0  0  0
 64 67  1  0  0  0  0
 66 69  1  0  0  0  0
 66 67  1  0  0  0  0
 66 68  1  0  0  0  0
 67 65  1  0  0  0  0
 69 71  2  0  0  0  0
 70 75  1  0  0  0  0
 70 69  1  0  0  0  0
 72 69  2  0  0  0  0
 74 75  1  0  0  0  0
 75 73  1  0  0  0  0
 75  5  1  0  0  0  0
 76 70  1  0  0  0  0
 77 79  1  0  0  0  0
 77 78  1  0  0  0  0
 79 82  1  0  0  0  0
 79 81  1  0  0  0  0
 80 79  1  0  0  0  0
 83 84  1  0  0  0  0
 83 77  1  0  0  0  0
 85 83  1  0  0  0  0
 86 83  1  0  0  0  0
M  END
$$$$
Ru_SIMes_sulfamide_ArOiPr_SO_NH12_iso.log
 OpenBabel10172311093D

 86 90  0  0  1  0  0  0  0  0999 V2000
    1.3790    0.3428    0.1199 Ru  0  0  0  0  0  0  0  0  0  0  0  0
   -0.5616   -0.0037   -0.0834 C   0  0  2  0  0  3  0  0  0  0  0  0
   -1.4559    1.0304   -0.0070 N   0  0  0  0  0  0  0  0  0  0  0  0
   -2.8530    0.5876   -0.1612 C   0  0  1  0  0  0  0  0  0  0  0  0
   -2.7194   -0.9100    0.1293 C   0  0  2  0  0  0  0  0  0  0  0  0
   -1.2869   -1.1469   -0.1425 N   0  0  0  0  0  0  0  0  0  0  0  0
   -2.9003   -1.0823    1.1948 H   0  0  0  0  0  0  0  0  0  0  0  0
   -3.1806    0.7602   -1.1956 H   0  0  0  0  0  0  0  0  0  0  0  0
   -0.7737   -2.4710   -0.2924 C   0  0  0  0  0  0  0  0  0  0  0  0
   -0.6567   -3.3074    0.8281 C   0  0  0  0  0  0  0  0  0  0  0  0
   -0.1189   -4.5861    0.6425 C   0  0  0  0  0  0  0  0  0  0  0  0
    0.2905   -5.0393   -0.6144 C   0  0  0  0  0  0  0  0  0  0  0  0
    0.1377   -4.1843   -1.7131 C   0  0  0  0  0  0  0  0  0  0  0  0
   -0.3913   -2.8989   -1.5775 C   0  0  0  0  0  0  0  0  0  0  0  0
   -0.0102   -5.2380    1.5055 H   0  0  0  0  0  0  0  0  0  0  0  0
    0.4479   -4.5229   -2.6987 H   0  0  0  0  0  0  0  0  0  0  0  0
   -0.4637   -1.9742   -2.7662 C   0  0  0  0  0  0  0  0  0  0  0  0
   -1.4470   -1.5030   -2.8649 H   0  0  0  0  0  0  0  0  0  0  0  0
    0.2664   -1.1619   -2.6715 H   0  0  0  0  0  0  0  0  0  0  0  0
   -0.2535   -2.5201   -3.6901 H   0  0  0  0  0  0  0  0  0  0  0  0
   -1.0720   -2.8442    2.2014 C   0  0  0  0  0  0  0  0  0  0  0  0
   -0.6493   -3.4974    2.9700 H   0  0  0  0  0  0  0  0  0  0  0  0
   -2.1629   -2.8654    2.3203 H   0  0  0  0  0  0  0  0  0  0  0  0
   -0.7322   -1.8218    2.3924 H   0  0  0  0  0  0  0  0  0  0  0  0
    0.9030   -6.4079   -0.7868 C   0  0  0  0  0  0  0  0  0  0  0  0
    0.4902   -6.9208   -1.6625 H   0  0  0  0  0  0  0  0  0  0  0  0
    0.7310   -7.0356    0.0924 H   0  0  0  0  0  0  0  0  0  0  0  0
    1.9876   -6.3351   -0.9372 H   0  0  0  0  0  0  0  0  0  0  0  0
   -1.0969    2.4090   -0.1960 C   0  0  0  0  0  0  0  0  0  0  0  0
   -0.8460    3.2261    0.9202 C   0  0  0  0  0  0  0  0  0  0  0  0
   -0.4253    4.5436    0.6949 C   0  0  0  0  0  0  0  0  0  0  0  0
   -0.2117    5.1761    1.5534 H   0  0  0  0  0  0  0  0  0  0  0  0
   -0.6202    4.2465   -1.6784 C   0  0  0  0  0  0  0  0  0  0  0  0
   -1.0247    2.9229   -1.5078 C   0  0  0  0  0  0  0  0  0  0  0  0
   -0.5493    4.6460   -2.6874 H   0  0  0  0  0  0  0  0  0  0  0  0
   -0.2911    5.0662   -0.5915 C   0  0  0  0  0  0  0  0  0  0  0  0
   -1.4044    2.0935   -2.7083 C   0  0  0  0  0  0  0  0  0  0  0  0
   -0.9355    2.4914   -3.6119 H   0  0  0  0  0  0  0  0  0  0  0  0
   -2.4907    2.1108   -2.8669 H   0  0  0  0  0  0  0  0  0  0  0  0
   -1.0923    1.0539   -2.5997 H   0  0  0  0  0  0  0  0  0  0  0  0
   -2.0297    3.1757    2.7089 H   0  0  0  0  0  0  0  0  0  0  0  0
   -1.0830    2.7636    2.3354 C   0  0  0  0  0  0  0  0  0  0  0  0
   -0.2888    3.1183    2.9990 H   0  0  0  0  0  0  0  0  0  0  0  0
   -1.1234    1.6788    2.4106 H   0  0  0  0  0  0  0  0  0  0  0  0
    0.2026    6.4749   -0.8128 C   0  0  0  0  0  0  0  0  0  0  0  0
    0.0815    7.0868    0.0863 H   0  0  0  0  0  0  0  0  0  0  0  0
   -0.3322    6.9604   -1.6360 H   0  0  0  0  0  0  0  0  0  0  0  0
    1.2689    6.4783   -1.0734 H   0  0  0  0  0  0  0  0  0  0  0  0
    1.7768    1.1555   -2.1035 Cl  0  0  0  0  0  0  0  0  0  0  0  0
    1.1821    0.2059    2.5159 Cl  0  0  0  0  0  0  0  0  0  0  0  0
    2.0983   -1.3315   -0.1121 C   0  0  0  0  0  3  0  0  0  0  0  0
    1.5487   -2.2273   -0.3901 H   0  0  0  0  0  0  0  0  0  0  0  0
    3.5134   -1.5282    0.0943 C   0  0  0  0  0  0  0  0  0  0  0  0
    4.3154   -0.4081    0.4233 C   0  0  0  0  0  0  0  0  0  0  0  0
    5.6816   -0.5470    0.6551 C   0  0  0  0  0  0  0  0  0  0  0  0
    6.2533   -1.8203    0.5558 C   0  0  0  0  0  0  0  0  0  0  0  0
    5.4853   -2.9435    0.2290 C   0  0  0  0  0  0  0  0  0  0  0  0
    4.1215   -2.7949   -0.0004 C   0  0  0  0  0  0  0  0  0  0  0  0
    3.5008   -3.6511   -0.2511 H   0  0  0  0  0  0  0  0  0  0  0  0
    5.9512   -3.9206    0.1563 H   0  0  0  0  0  0  0  0  0  0  0  0
    7.3184   -1.9287    0.7366 H   0  0  0  0  0  0  0  0  0  0  0  0
    6.3037    0.3022    0.9066 H   0  0  0  0  0  0  0  0  0  0  0  0
    3.6102    0.7592    0.4978 O   0  0  0  0  0  0  0  0  0  0  0  0
   -3.6697    2.3917    0.7092 H   0  0  0  0  0  0  0  0  0  0  0  0
   -3.5996    1.0240    1.8260 H   0  0  0  0  0  0  0  0  0  0  0  0
   -5.2314    1.0647    0.5200 N   0  0  0  0  0  0  0  0  0  0  0  0
   -3.8098    1.3119    0.7935 C   0  0  0  0  0  0  0  0  0  0  0  0
   -5.5888    1.5697   -0.2893 H   0  0  0  0  0  0  0  0  0  0  0  0
   -5.7763   -0.5235    0.4743 S   0  0  0  0  0  0  0  0  0  0  0  0
   -5.0439   -1.3684   -0.7625 N   0  0  0  0  0  0  0  0  0  0  0  0
   -5.3247   -1.1508    1.7166 O   0  0  0  0  0  0  0  0  0  0  0  0
   -7.1886   -0.4279    0.1133 O   0  0  0  0  0  0  0  0  0  0  0  0
   -3.6244   -2.8310   -0.2511 H   0  0  0  0  0  0  0  0  0  0  0  0
   -3.2908   -1.8935   -1.7098 H   0  0  0  0  0  0  0  0  0  0  0  0
   -3.6453   -1.8264   -0.6801 C   0  0  0  0  0  0  0  0  0  0  0  0
   -5.3265   -1.0053   -1.6682 H   0  0  0  0  0  0  0  0  0  0  0  0
    4.2918    2.0463    0.6684 C   0  0  0  0  0  0  0  0  0  0  0  0
    5.0136    1.9077    1.4791 H   0  0  0  0  0  0  0  0  0  0  0  0
    3.2361    3.0492    1.1018 C   0  0  0  0  0  0  0  0  0  0  0  0
    2.5056    3.2227    0.3052 H   0  0  0  0  0  0  0  0  0  0  0  0
    2.7084    2.7005    1.9928 H   0  0  0  0  0  0  0  0  0  0  0  0
    3.7262    4.0013    1.3302 H   0  0  0  0  0  0  0  0  0  0  0  0
    4.9867    2.4391   -0.6281 C   0  0  0  0  0  0  0  0  0  0  0  0
    5.5182    3.3852   -0.4829 H   0  0  0  0  0  0  0  0  0  0  0  0
    5.7128    1.6859   -0.9459 H   0  0  0  0  0  0  0  0  0  0  0  0
    4.2425    2.5633   -1.4195 H   0  0  0  0  0  0  0  0  0  0  0  0
  1 50  1  0  0  0  0
  2  3  1  0  0  0  0
  2  1  1  1  0  0  0
  4  8  1  6  0  0  0
  4  3  1  0  0  0  0
  4  5  1  0  0  0  0
  4 67  1  0  0  0  0
  5  7  1  1  0  0  0
  6  2  1  0  0  0  0
  6  5  1  0  0  0  0
  9  6  1  0  0  0  0
  9 10  1  0  0  0  0
 10 21  1  0  0  0  0
 11 10  2  0  0  0  0
 11 15  1  0  0  0  0
 12 11  1  0  0  0  0
 13 14  1  0  0  0  0
 13 12  2  0  0  0  0
 14  9  2  0  0  0  0
 16 13  1  0  0  0  0
 17 19  1  0  0  0  0
 17 14  1  0  0  0  0
 18 17  1  0  0  0  0
 20 17  1  0  0  0  0
 21 23  1  0  0  0  0
 21 24  1  0  0  0  0
 21 22  1  0  0  0  0
 25 12  1  0  0  0  0
 25 27  1  0  0  0  0
 26 25  1  0  0  0  0
 28 25  1  0  0  0  0
 29  3  1  0  0  0  0
 29 30  1  0  0  0  0
 30 42  1  0  0  0  0
 31 30  2  0  0  0  0
 31 32  1  0  0  0  0
 33 34  1  0  0  0  0
 33 36  2  0  0  0  0
 34 29  2  0  0  0  0
 35 33  1  0  0  0  0
 36 31  1  0  0  0  0
 37 40  1  0  0  0  0
 37 34  1  0  0  0  0
 38 37  1  0  0  0  0
 39 37  1  0  0  0  0
 42 44  1  0  0  0  0
 42 41  1  0  0  0  0
 42 43  1  0  0  0  0
 45 36  1  0  0  0  0
 45 46  1  0  0  0  0
 47 45  1  0  0  0  0
 48 45  1  0  0  0  0
 49  1  1  0  0  0  0
 51 53  1  0  0  0  0
 51  1  1  0  0  0  0
 52 51  1  0  0  0  0
 53 54  1  0  0  0  0
 54 63  1  0  0  0  0
 54 55  2  0  0  0  0
 55 62  1  0  0  0  0
 56 55  1  0  0  0  0
 56 61  1  0  0  0  0
 57 56  2  0  0  0  0
 58 53  2  0  0  0  0
 58 57  1  0  0  0  0
 59 58  1  0  0  0  0
 60 57  1  0  0  0  0
 63 77  1  0  0  0  0
 64 67  1  0  0  0  0
 66 67  1  0  0  0  0
 67 65  1  0  0  0  0
 68 66  1  0  0  0  0
 69 66  1  0  0  0  0
 69 71  2  0  0  0  0
 70 75  1  0  0  0  0
 70 69  1  0  0  0  0
 72 69  2  0  0  0  0
 74 75  1  0  0  0  0
 75 73  1  0  0  0  0
 75  5  1  0  0  0  0
 76 70  1  0  0  0  0
 77 79  1  0  0  0  0
 77 78  1  0  0  0  0
 79 82  1  0  0  0  0
 79 81  1  0  0  0  0
 80 79  1  0  0  0  0
 83 84  1  0  0  0  0
 83 77  1  0  0  0  0
 85 83  1  0  0  0  0
 86 83  1  0  0  0  0
M  END
$$$$
Ru_SIMes_sulfamide_ArOiPr_SO_NH12.log
 OpenBabel10172311093D

 86 90  0  0  1  0  0  0  0  0999 V2000
   -1.3696    0.3891   -0.1360 Ru  0  0  0  0  0  0  0  0  0  0  0  0
    0.5595   -0.0587   -0.0427 C   0  0  1  0  0  3  0  0  0  0  0  0
    1.2300   -1.2371    0.0179 N   0  0  0  0  0  0  0  0  0  0  0  0
    2.6696   -1.0915   -0.2748 C   0  0  1  0  0  0  0  0  0  0  0  0
    2.8717    0.4156   -0.0900 C   0  0  2  0  0  0  0  0  0  0  0  0
    1.4954    0.9288   -0.1845 N   0  0  0  0  0  0  0  0  0  0  0  0
    3.2557    0.6137    0.9145 H   0  0  0  0  0  0  0  0  0  0  0  0
    2.8508   -1.3812   -1.3184 H   0  0  0  0  0  0  0  0  0  0  0  0
    1.2264    2.3217    0.0560 C   0  0  0  0  0  0  0  0  0  0  0  0
    1.2653    2.8053    1.3814 C   0  0  0  0  0  0  0  0  0  0  0  0
    0.9562    4.1465    1.6056 C   0  0  0  0  0  0  0  0  0  0  0  0
    0.6149    5.0133    0.5598 C   0  0  0  0  0  0  0  0  0  0  0  0
    0.6350    4.5156   -0.7429 C   0  0  0  0  0  0  0  0  0  0  0  0
    0.9573    3.1809   -1.0232 C   0  0  0  0  0  0  0  0  0  0  0  0
    0.9726    4.5233    2.6257 H   0  0  0  0  0  0  0  0  0  0  0  0
    0.4081    5.1813   -1.5724 H   0  0  0  0  0  0  0  0  0  0  0  0
    1.0717    2.7446   -2.4616 C   0  0  0  0  0  0  0  0  0  0  0  0
    2.0246    3.0919   -2.8825 H   0  0  0  0  0  0  0  0  0  0  0  0
    1.0159    1.6630   -2.5675 H   0  0  0  0  0  0  0  0  0  0  0  0
    0.2711    3.1829   -3.0651 H   0  0  0  0  0  0  0  0  0  0  0  0
    1.6644    1.9279    2.5414 C   0  0  0  0  0  0  0  0  0  0  0  0
    1.2565    2.3225    3.4755 H   0  0  0  0  0  0  0  0  0  0  0  0
    2.7566    1.8944    2.6484 H   0  0  0  0  0  0  0  0  0  0  0  0
    1.3014    0.9061    2.4254 H   0  0  0  0  0  0  0  0  0  0  0  0
    0.2302    6.4448    0.8425 C   0  0  0  0  0  0  0  0  0  0  0  0
    0.3024    7.0629   -0.0575 H   0  0  0  0  0  0  0  0  0  0  0  0
    0.8700    6.8841    1.6154 H   0  0  0  0  0  0  0  0  0  0  0  0
   -0.8038    6.5074    1.2052 H   0  0  0  0  0  0  0  0  0  0  0  0
    0.6416   -2.5314    0.1631 C   0  0  0  0  0  0  0  0  0  0  0  0
    0.3042   -2.9690    1.4565 C   0  0  0  0  0  0  0  0  0  0  0  0
   -0.3142   -4.2146    1.5908 C   0  0  0  0  0  0  0  0  0  0  0  0
   -0.5960   -4.5565    2.5835 H   0  0  0  0  0  0  0  0  0  0  0  0
   -0.2307   -4.5590   -0.7866 C   0  0  0  0  0  0  0  0  0  0  0  0
    0.3947   -3.3211   -0.9709 C   0  0  0  0  0  0  0  0  0  0  0  0
   -0.4470   -5.1708   -1.6589 H   0  0  0  0  0  0  0  0  0  0  0  0
   -0.5941   -5.0219    0.4817 C   0  0  0  0  0  0  0  0  0  0  0  0
    0.7552   -2.8461   -2.3554 C   0  0  0  0  0  0  0  0  0  0  0  0
    0.2373   -3.4429   -3.1116 H   0  0  0  0  0  0  0  0  0  0  0  0
    1.8317   -2.9436   -2.5448 H   0  0  0  0  0  0  0  0  0  0  0  0
    0.4811   -1.7969   -2.4989 H   0  0  0  0  0  0  0  0  0  0  0  0
    1.5596   -1.7495    2.7373 H   0  0  0  0  0  0  0  0  0  0  0  0
    0.5214   -2.0880    2.6601 C   0  0  0  0  0  0  0  0  0  0  0  0
    0.2706   -2.6255    3.5788 H   0  0  0  0  0  0  0  0  0  0  0  0
   -0.1044   -1.1898    2.6036 H   0  0  0  0  0  0  0  0  0  0  0  0
   -1.2520   -6.3688    0.6557 C   0  0  0  0  0  0  0  0  0  0  0  0
   -1.9769   -6.3547    1.4760 H   0  0  0  0  0  0  0  0  0  0  0  0
   -0.5078   -7.1403    0.8923 H   0  0  0  0  0  0  0  0  0  0  0  0
   -1.7688   -6.6803   -0.2571 H   0  0  0  0  0  0  0  0  0  0  0  0
   -1.5866    1.1575    2.1289 Cl  0  0  0  0  0  0  0  0  0  0  0  0
   -1.3273    0.3097   -2.5420 Cl  0  0  0  0  0  0  0  0  0  0  0  0
   -2.1624   -1.2507    0.1030 C   0  0  0  0  0  3  0  0  0  0  0  0
   -1.6462   -2.1797    0.3289 H   0  0  0  0  0  0  0  0  0  0  0  0
   -3.5958   -1.3695   -0.0183 C   0  0  0  0  0  0  0  0  0  0  0  0
   -4.3575   -0.2026   -0.2710 C   0  0  0  0  0  0  0  0  0  0  0  0
   -5.7412   -0.2670   -0.4156 C   0  0  0  0  0  0  0  0  0  0  0  0
   -6.3710   -1.5115   -0.3047 C   0  0  0  0  0  0  0  0  0  0  0  0
   -5.6431   -2.6796   -0.0518 C   0  0  0  0  0  0  0  0  0  0  0  0
   -4.2616   -2.6057    0.0905 C   0  0  0  0  0  0  0  0  0  0  0  0
   -3.6709   -3.4973    0.2833 H   0  0  0  0  0  0  0  0  0  0  0  0
   -6.1538   -3.6332    0.0322 H   0  0  0  0  0  0  0  0  0  0  0  0
   -7.4498   -1.5613   -0.4170 H   0  0  0  0  0  0  0  0  0  0  0  0
   -6.3334    0.6182   -0.6081 H   0  0  0  0  0  0  0  0  0  0  0  0
   -3.5992    0.9293   -0.3658 O   0  0  0  0  0  0  0  0  0  0  0  0
    3.2114   -2.9657    0.6719 H   0  0  0  0  0  0  0  0  0  0  0  0
    3.5728   -1.5363    1.6474 H   0  0  0  0  0  0  0  0  0  0  0  0
    4.9649   -2.0104    0.1653 N   0  0  0  0  0  0  0  0  0  0  0  0
    3.5743   -1.9365    0.6310 C   0  0  0  0  0  0  0  0  0  0  0  0
    5.0970   -2.6345   -0.6288 H   0  0  0  0  0  0  0  0  0  0  0  0
    5.8011   -0.5767   -0.1076 S   0  0  0  0  0  0  0  0  0  0  0  0
    5.0820    0.3202   -1.3157 N   0  0  0  0  0  0  0  0  0  0  0  0
    5.6721    0.2127    1.1177 O   0  0  0  0  0  0  0  0  0  0  0  0
    7.0968   -0.9940   -0.6382 O   0  0  0  0  0  0  0  0  0  0  0  0
    4.0456    2.0799   -0.8046 H   0  0  0  0  0  0  0  0  0  0  0  0
    3.3304    1.0922   -2.0862 H   0  0  0  0  0  0  0  0  0  0  0  0
    3.8191    1.0558   -1.1118 C   0  0  0  0  0  0  0  0  0  0  0  0
    5.1649   -0.1491   -2.2131 H   0  0  0  0  0  0  0  0  0  0  0  0
   -4.2250    2.2523   -0.4603 C   0  0  0  0  0  0  0  0  0  0  0  0
   -5.0049    2.1708   -1.2236 H   0  0  0  0  0  0  0  0  0  0  0  0
   -3.1508    3.2132   -0.9404 C   0  0  0  0  0  0  0  0  0  0  0  0
   -2.3604    3.3255   -0.1918 H   0  0  0  0  0  0  0  0  0  0  0  0
   -2.7032    2.8636   -1.8739 H   0  0  0  0  0  0  0  0  0  0  0  0
   -3.6047    4.1950   -1.1102 H   0  0  0  0  0  0  0  0  0  0  0  0
   -4.8121    2.6441    0.8887 C   0  0  0  0  0  0  0  0  0  0  0  0
   -5.3007    3.6202    0.8022 H   0  0  0  0  0  0  0  0  0  0  0  0
   -5.5552    1.9210    1.2357 H   0  0  0  0  0  0  0  0  0  0  0  0
   -4.0126    2.7077    1.6317 H   0  0  0  0  0  0  0  0  0  0  0  0
  1 51  1  0  0  0  0
  1 49  1  0  0  0  0
  2  1  1  6  0  0  0
  2  3  1  0  0  0  0
  3 29  1  0  0  0  0
  4  8  1  6  0  0  0
  4  5  1  0  0  0  0
  4  3  1  0  0  0  0
  4 67  1  0  0  0  0
  5  7  1  1  0  0  0
  6  5  1  0  0  0  0
  6  2  1  0  0  0  0
  6  9  1  0  0  0  0
  9 10  1  0  0  0  0
 10 11  2  0  0  0  0
 10 21  1  0  0  0  0
 11 15  1  0  0  0  0
 12 25  1  0  0  0  0
 12 11  1  0  0  0  0
 13 12  2  0  0  0  0
 14 13  1  0  0  0  0
 14  9  2  0  0  0  0
 16 13  1  0  0  0  0
 17 14  1  0  0  0  0
 18 17  1  0  0  0  0
 19 17  1  0  0  0  0
 20 17  1  0  0  0  0
 21 23  1  0  0  0  0
 21 22  1  0  0  0  0
 24 21  1  0  0  0  0
 25 28  1  0  0  0  0
 25 27  1  0  0  0  0
 26 25  1  0  0  0  0
 29 30  1  0  0  0  0
 30 31  2  0  0  0  0
 30 42  1  0  0  0  0
 31 32  1  0  0  0  0
 33 36  2  0  0  0  0
 34 33  1  0  0  0  0
 34 29  2  0  0  0  0
 35 33  1  0  0  0  0
 36 45  1  0  0  0  0
 36 31  1  0  0  0  0
 37 34  1  0  0  0  0
 38 37  1  0  0  0  0
 39 37  1  0  0  0  0
 40 37  1  0  0  0  0
 42 41  1  0  0  0  0
 42 43  1  0  0  0  0
 44 42  1  0  0  0  0
 45 47  1  0  0  0  0
 45 46  1  0  0  0  0
 48 45  1  0  0  0  0
 50  1  1  0  0  0  0
 51 52  1  0  0  0  0
 53 58  1  0  0  0  0
 53 51  1  0  0  0  0
 54 53  2  0  0  0  0
 55 56  2  0  0  0  0
 55 54  1  0  0  0  0
 56 57  1  0  0  0  0
 57 60  1  0  0  0  0
 57 58  2  0  0  0  0
 58 59  1  0  0  0  0
 61 56  1  0  0  0  0
 62 55  1  0  0  0  0
 63 54  1  0  0  0  0
 66 67  1  0  0  0  0
 67 64  1  0  0  0  0
 67 65  1  0  0  0  0
 68 66  1  0  0  0  0
 69 66  1  0  0  0  0
 69 71  2  0  0  0  0
 70 75  1  0  0  0  0
 70 69  1  0  0  0  0
 72 69  2  0  0  0  0
 74 75  1  0  0  0  0
 75 73  1  0  0  0  0
 75  5  1  0  0  0  0
 76 70  1  0  0  0  0
 77 63  1  0  0  0  0
 77 83  1  0  0  0  0
 78 77  1  0  0  0  0
 79 77  1  0  0  0  0
 79 80  1  0  0  0  0
 81 79  1  0  0  0  0
 82 79  1  0  0  0  0
 83 85  1  0  0  0  0
 83 86  1  0  0  0  0
 84 83  1  0  0  0  0
M  END
$$$$
Ru_SIMes_sulfamide_ArOiPr_SO_NH1_iso.log
 OpenBabel10172311093D

 86 90  0  0  1  0  0  0  0  0999 V2000
    1.3788    0.3397    0.1190 Ru  0  0  0  0  0  0  0  0  0  0  0  0
   -0.5626   -0.0009   -0.0858 C   0  0  2  0  0  3  0  0  0  0  0  0
   -1.4540    1.0354   -0.0113 N   0  0  0  0  0  0  0  0  0  0  0  0
   -2.8510    0.5948   -0.1761 C   0  0  1  0  0  0  0  0  0  0  0  0
   -2.7210   -0.9000    0.1365 C   0  0  2  0  0  0  0  0  0  0  0  0
   -1.2916   -1.1422   -0.1444 N   0  0  0  0  0  0  0  0  0  0  0  0
   -2.8909   -1.0519    1.2067 H   0  0  0  0  0  0  0  0  0  0  0  0
   -3.1679    0.7489   -1.2159 H   0  0  0  0  0  0  0  0  0  0  0  0
   -0.7835   -2.4678   -0.2951 C   0  0  0  0  0  0  0  0  0  0  0  0
   -0.6677   -3.3052    0.8249 C   0  0  0  0  0  0  0  0  0  0  0  0
   -0.1336   -4.5850    0.6379 C   0  0  0  0  0  0  0  0  0  0  0  0
    0.2737   -5.0385   -0.6198 C   0  0  0  0  0  0  0  0  0  0  0  0
    0.1214   -4.1828   -1.7179 C   0  0  0  0  0  0  0  0  0  0  0  0
   -0.4042   -2.8960   -1.5809 C   0  0  0  0  0  0  0  0  0  0  0  0
   -0.0260   -5.2380    1.5004 H   0  0  0  0  0  0  0  0  0  0  0  0
    0.4290   -4.5219   -2.7041 H   0  0  0  0  0  0  0  0  0  0  0  0
   -0.4783   -1.9707   -2.7690 C   0  0  0  0  0  0  0  0  0  0  0  0
   -1.4618   -1.4988   -2.8641 H   0  0  0  0  0  0  0  0  0  0  0  0
    0.2529   -1.1592   -2.6759 H   0  0  0  0  0  0  0  0  0  0  0  0
   -0.2713   -2.5163   -3.6937 H   0  0  0  0  0  0  0  0  0  0  0  0
   -1.0801   -2.8411    2.1987 C   0  0  0  0  0  0  0  0  0  0  0  0
   -0.6643   -3.4997    2.9665 H   0  0  0  0  0  0  0  0  0  0  0  0
   -2.1713   -2.8522    2.3163 H   0  0  0  0  0  0  0  0  0  0  0  0
   -0.7311   -1.8222    2.3920 H   0  0  0  0  0  0  0  0  0  0  0  0
    0.8840   -6.4079   -0.7928 C   0  0  0  0  0  0  0  0  0  0  0  0
    0.4879   -6.9105   -1.6818 H   0  0  0  0  0  0  0  0  0  0  0  0
    0.6915   -7.0434    0.0767 H   0  0  0  0  0  0  0  0  0  0  0  0
    1.9719   -6.3381   -0.9192 H   0  0  0  0  0  0  0  0  0  0  0  0
   -1.0902    2.4129   -0.1989 C   0  0  0  0  0  0  0  0  0  0  0  0
   -0.8414    3.2281    0.9191 C   0  0  0  0  0  0  0  0  0  0  0  0
   -0.4151    4.5443    0.6969 C   0  0  0  0  0  0  0  0  0  0  0  0
   -0.2029    5.1753    1.5568 H   0  0  0  0  0  0  0  0  0  0  0  0
   -0.6020    4.2503   -1.6775 C   0  0  0  0  0  0  0  0  0  0  0  0
   -1.0118    2.9279   -1.5098 C   0  0  0  0  0  0  0  0  0  0  0  0
   -0.5263    4.6508   -2.6858 H   0  0  0  0  0  0  0  0  0  0  0  0
   -0.2740    5.0677   -0.5885 C   0  0  0  0  0  0  0  0  0  0  0  0
   -1.3912    2.1014   -2.7125 C   0  0  0  0  0  0  0  0  0  0  0  0
   -0.9181    2.4986   -3.6142 H   0  0  0  0  0  0  0  0  0  0  0  0
   -2.4769    2.1232   -2.8738 H   0  0  0  0  0  0  0  0  0  0  0  0
   -1.0835    1.0606   -2.6043 H   0  0  0  0  0  0  0  0  0  0  0  0
   -2.0404    3.1716    2.6972 H   0  0  0  0  0  0  0  0  0  0  0  0
   -1.0880    2.7650    2.3325 C   0  0  0  0  0  0  0  0  0  0  0  0
   -0.3018    3.1248    3.0029 H   0  0  0  0  0  0  0  0  0  0  0  0
   -1.1231    1.6799    2.4078 H   0  0  0  0  0  0  0  0  0  0  0  0
    0.2259    6.4747   -0.8064 C   0  0  0  0  0  0  0  0  0  0  0  0
    0.0970    7.0881    0.0906 H   0  0  0  0  0  0  0  0  0  0  0  0
   -0.2988    6.9605   -1.6359 H   0  0  0  0  0  0  0  0  0  0  0  0
    1.2950    6.4748   -1.0556 H   0  0  0  0  0  0  0  0  0  0  0  0
    1.7819    1.1473   -2.1055 Cl  0  0  0  0  0  0  0  0  0  0  0  0
    1.1790    0.2061    2.5151 Cl  0  0  0  0  0  0  0  0  0  0  0  0
    2.0927   -1.3372   -0.1105 C   0  0  0  0  0  3  0  0  0  0  0  0
    1.5406   -2.2313   -0.3890 H   0  0  0  0  0  0  0  0  0  0  0  0
    3.5069   -1.5381    0.0985 C   0  0  0  0  0  0  0  0  0  0  0  0
    4.3118   -0.4199    0.4273 C   0  0  0  0  0  0  0  0  0  0  0  0
    5.6772   -0.5628    0.6617 C   0  0  0  0  0  0  0  0  0  0  0  0
    6.2451   -1.8380    0.5654 C   0  0  0  0  0  0  0  0  0  0  0  0
    5.4741   -2.9593    0.2391 C   0  0  0  0  0  0  0  0  0  0  0  0
    4.1113   -2.8068    0.0069 C   0  0  0  0  0  0  0  0  0  0  0  0
    3.4883   -3.6614   -0.2435 H   0  0  0  0  0  0  0  0  0  0  0  0
    5.9371   -3.9380    0.1688 H   0  0  0  0  0  0  0  0  0  0  0  0
    7.3095   -1.9495    0.7483 H   0  0  0  0  0  0  0  0  0  0  0  0
    6.3014    0.2849    0.9130 H   0  0  0  0  0  0  0  0  0  0  0  0
    3.6103    0.7497    0.4986 O   0  0  0  0  0  0  0  0  0  0  0  0
   -3.6779    2.4129    0.6558 H   0  0  0  0  0  0  0  0  0  0  0  0
   -3.6192    1.0652    1.7976 H   0  0  0  0  0  0  0  0  0  0  0  0
   -5.2377    1.0807    0.4719 N   0  0  0  0  0  0  0  0  0  0  0  0
   -3.8163    1.3344    0.7579 C   0  0  0  0  0  0  0  0  0  0  0  0
   -5.5504    1.5191   -0.3937 H   0  0  0  0  0  0  0  0  0  0  0  0
   -5.7633   -0.5077    0.4858 S   0  0  0  0  0  0  0  0  0  0  0  0
   -4.9893   -1.2277   -0.8235 N   0  0  0  0  0  0  0  0  0  0  0  0
   -5.2998   -1.0797    1.7540 O   0  0  0  0  0  0  0  0  0  0  0  0
   -7.1823   -0.4877    0.1351 O   0  0  0  0  0  0  0  0  0  0  0  0
   -3.7046   -2.8005   -0.1546 H   0  0  0  0  0  0  0  0  0  0  0  0
   -3.2615   -1.9727   -1.6588 H   0  0  0  0  0  0  0  0  0  0  0  0
   -3.6538   -1.8254   -0.6503 C   0  0  0  0  0  0  0  0  0  0  0  0
   -5.6480   -1.8411   -1.2987 H   0  0  0  0  0  0  0  0  0  0  0  0
    4.2955    2.0351    0.6682 C   0  0  0  0  0  0  0  0  0  0  0  0
    5.0154    1.8958    1.4804 H   0  0  0  0  0  0  0  0  0  0  0  0
    3.2419    3.0420    1.0978 C   0  0  0  0  0  0  0  0  0  0  0  0
    2.5134    3.2161    0.2995 H   0  0  0  0  0  0  0  0  0  0  0  0
    2.7115    2.6965    1.9885 H   0  0  0  0  0  0  0  0  0  0  0  0
    3.7345    3.9929    1.3253 H   0  0  0  0  0  0  0  0  0  0  0  0
    4.9938    2.4234   -0.6278 C   0  0  0  0  0  0  0  0  0  0  0  0
    5.5278    3.3682   -0.4834 H   0  0  0  0  0  0  0  0  0  0  0  0
    5.7182    1.6675   -0.9430 H   0  0  0  0  0  0  0  0  0  0  0  0
    4.2513    2.5484   -1.4207 H   0  0  0  0  0  0  0  0  0  0  0  0
  1 50  1  0  0  0  0
  2  3  1  0  0  0  0
  2  1  1  1  0  0  0
  4  8  1  6  0  0  0
  4  3  1  0  0  0  0
  4  5  1  0  0  0  0
  4 67  1  0  0  0  0
  5  7  1  1  0  0  0
  6  2  1  0  0  0  0
  6  5  1  0  0  0  0
  9  6  1  0  0  0  0
  9 10  1  0  0  0  0
 10 21  1  0  0  0  0
 11 10  2  0  0  0  0
 11 15  1  0  0  0  0
 12 11  1  0  0  0  0
 13 14  1  0  0  0  0
 13 12  2  0  0  0  0
 14  9  2  0  0  0  0
 16 13  1  0  0  0  0
 17 19  1  0  0  0  0
 17 14  1  0  0  0  0
 18 17  1  0  0  0  0
 20 17  1  0  0  0  0
 21 23  1  0  0  0  0
 21 24  1  0  0  0  0
 21 22  1  0  0  0  0
 25 12  1  0  0  0  0
 25 27  1  0  0  0  0
 26 25  1  0  0  0  0
 28 25  1  0  0  0  0
 29  3  1  0  0  0  0
 29 30  1  0  0  0  0
 30 42  1  0  0  0  0
 31 30  2  0  0  0  0
 31 32  1  0  0  0  0
 33 34  1  0  0  0  0
 33 36  2  0  0  0  0
 34 29  2  0  0  0  0
 35 33  1  0  0  0  0
 36 31  1  0  0  0  0
 37 40  1  0  0  0  0
 37 34  1  0  0  0  0
 38 37  1  0  0  0  0
 39 37  1  0  0  0  0
 42 44  1  0  0  0  0
 42 41  1  0  0  0  0
 42 43  1  0  0  0  0
 45 36  1  0  0  0  0
 45 46  1  0  0  0  0
 47 45  1  0  0  0  0
 48 45  1  0  0  0  0
 49  1  1  0  0  0  0
 51 53  1  0  0  0  0
 51  1  1  0  0  0  0
 52 51  1  0  0  0  0
 53 54  1  0  0  0  0
 54 63  1  0  0  0  0
 54 55  2  0  0  0  0
 55 62  1  0  0  0  0
 56 55  1  0  0  0  0
 56 61  1  0  0  0  0
 57 56  2  0  0  0  0
 58 53  2  0  0  0  0
 58 57  1  0  0  0  0
 59 58  1  0  0  0  0
 60 57  1  0  0  0  0
 63 77  1  0  0  0  0
 64 67  1  0  0  0  0
 66 69  1  0  0  0  0
 66 67  1  0  0  0  0
 67 65  1  0  0  0  0
 68 66  1  0  0  0  0
 69 71  2  0  0  0  0
 70 75  1  0  0  0  0
 70 69  1  0  0  0  0
 72 69  2  0  0  0  0
 74 75  1  0  0  0  0
 75 73  1  0  0  0  0
 75  5  1  0  0  0  0
 76 70  1  0  0  0  0
 77 79  1  0  0  0  0
 77 78  1  0  0  0  0
 79 82  1  0  0  0  0
 79 81  1  0  0  0  0
 80 79  1  0  0  0  0
 83 84  1  0  0  0  0
 83 77  1  0  0  0  0
 85 83  1  0  0  0  0
 86 83  1  0  0  0  0
M  END
$$$$
Ru_SIMes_sulfamide_ArOiPr_SO_NH1.log
 OpenBabel10172311093D

 86 90  0  0  1  0  0  0  0  0999 V2000
   -1.3676    0.3925   -0.1355 Ru  0  0  0  0  0  0  0  0  0  0  0  0
    0.5594   -0.0653   -0.0529 C   0  0  1  0  0  3  0  0  0  0  0  0
    1.2243   -1.2476   -0.0104 N   0  0  0  0  0  0  0  0  0  0  0  0
    2.6610   -1.1025   -0.3238 C   0  0  1  0  0  0  0  0  0  0  0  0
    2.8728    0.3954   -0.0767 C   0  0  2  0  0  0  0  0  0  0  0  0
    1.5007    0.9181   -0.1854 N   0  0  0  0  0  0  0  0  0  0  0  0
    3.2291    0.5461    0.9460 H   0  0  0  0  0  0  0  0  0  0  0  0
    2.8230   -1.3433   -1.3824 H   0  0  0  0  0  0  0  0  0  0  0  0
    1.2366    2.3130    0.0471 C   0  0  0  0  0  0  0  0  0  0  0  0
    1.2828    2.8060    1.3690 C   0  0  0  0  0  0  0  0  0  0  0  0
    0.9792    4.1495    1.5854 C   0  0  0  0  0  0  0  0  0  0  0  0
    0.6363    5.0104    0.5351 C   0  0  0  0  0  0  0  0  0  0  0  0
    0.6491    4.5036   -0.7641 C   0  0  0  0  0  0  0  0  0  0  0  0
    0.9658    3.1658   -1.0367 C   0  0  0  0  0  0  0  0  0  0  0  0
    1.0014    4.5333    2.6027 H   0  0  0  0  0  0  0  0  0  0  0  0
    0.4211    5.1642   -1.5973 H   0  0  0  0  0  0  0  0  0  0  0  0
    1.0703    2.7216   -2.4736 C   0  0  0  0  0  0  0  0  0  0  0  0
    2.0053    3.0945   -2.9120 H   0  0  0  0  0  0  0  0  0  0  0  0
    1.0450    1.6381   -2.5707 H   0  0  0  0  0  0  0  0  0  0  0  0
    0.2473    3.1304   -3.0674 H   0  0  0  0  0  0  0  0  0  0  0  0
    1.6831    1.9350    2.5335 C   0  0  0  0  0  0  0  0  0  0  0  0
    1.2850    2.3406    3.4671 H   0  0  0  0  0  0  0  0  0  0  0  0
    2.7758    1.8936    2.6331 H   0  0  0  0  0  0  0  0  0  0  0  0
    1.3107    0.9154    2.4280 H   0  0  0  0  0  0  0  0  0  0  0  0
    0.2581    6.4452    0.8094 C   0  0  0  0  0  0  0  0  0  0  0  0
    0.3275    7.0565   -0.0954 H   0  0  0  0  0  0  0  0  0  0  0  0
    0.9036    6.8879    1.5756 H   0  0  0  0  0  0  0  0  0  0  0  0
   -0.7737    6.5140    1.1773 H   0  0  0  0  0  0  0  0  0  0  0  0
    0.6310   -2.5388    0.1404 C   0  0  0  0  0  0  0  0  0  0  0  0
    0.3024   -2.9734    1.4371 C   0  0  0  0  0  0  0  0  0  0  0  0
   -0.3224   -4.2150    1.5779 C   0  0  0  0  0  0  0  0  0  0  0  0
   -0.5977   -4.5543    2.5734 H   0  0  0  0  0  0  0  0  0  0  0  0
   -0.2601   -4.5628   -0.7997 C   0  0  0  0  0  0  0  0  0  0  0  0
    0.3706   -3.3286   -0.9904 C   0  0  0  0  0  0  0  0  0  0  0  0
   -0.4866   -5.1745   -1.6695 H   0  0  0  0  0  0  0  0  0  0  0  0
   -0.6163   -5.0219    0.4721 C   0  0  0  0  0  0  0  0  0  0  0  0
    0.7242   -2.8568   -2.3777 C   0  0  0  0  0  0  0  0  0  0  0  0
    0.2033   -3.4556   -3.1302 H   0  0  0  0  0  0  0  0  0  0  0  0
    1.8000   -2.9538   -2.5715 H   0  0  0  0  0  0  0  0  0  0  0  0
    0.4490   -1.8078   -2.5217 H   0  0  0  0  0  0  0  0  0  0  0  0
    1.5777   -1.7599    2.7035 H   0  0  0  0  0  0  0  0  0  0  0  0
    0.5370   -2.0936    2.6383 C   0  0  0  0  0  0  0  0  0  0  0  0
    0.2943   -2.6301    3.5597 H   0  0  0  0  0  0  0  0  0  0  0  0
   -0.0853   -1.1925    2.5893 H   0  0  0  0  0  0  0  0  0  0  0  0
   -1.2808   -6.3646    0.6532 C   0  0  0  0  0  0  0  0  0  0  0  0
   -1.9993   -6.3449    1.4790 H   0  0  0  0  0  0  0  0  0  0  0  0
   -0.5394   -7.1401    0.8854 H   0  0  0  0  0  0  0  0  0  0  0  0
   -1.8064   -6.6745   -0.2551 H   0  0  0  0  0  0  0  0  0  0  0  0
   -1.5679    1.1601    2.1313 Cl  0  0  0  0  0  0  0  0  0  0  0  0
   -1.3392    0.3159   -2.5412 Cl  0  0  0  0  0  0  0  0  0  0  0  0
   -2.1674   -1.2433    0.1068 C   0  0  0  0  0  3  0  0  0  0  0  0
   -1.6545   -2.1753    0.3278 H   0  0  0  0  0  0  0  0  0  0  0  0
   -3.6022   -1.3544   -0.0043 C   0  0  0  0  0  0  0  0  0  0  0  0
   -4.3596   -0.1837   -0.2518 C   0  0  0  0  0  0  0  0  0  0  0  0
   -5.7447   -0.2410   -0.3863 C   0  0  0  0  0  0  0  0  0  0  0  0
   -6.3801   -1.4823   -0.2704 C   0  0  0  0  0  0  0  0  0  0  0  0
   -5.6565   -2.6540   -0.0224 C   0  0  0  0  0  0  0  0  0  0  0  0
   -4.2736   -2.5871    0.1096 C   0  0  0  0  0  0  0  0  0  0  0  0
   -3.6860   -3.4817    0.2984 H   0  0  0  0  0  0  0  0  0  0  0  0
   -6.1715   -3.6049    0.0657 H   0  0  0  0  0  0  0  0  0  0  0  0
   -7.4600   -1.5265   -0.3748 H   0  0  0  0  0  0  0  0  0  0  0  0
   -6.3338    0.6471   -0.5749 H   0  0  0  0  0  0  0  0  0  0  0  0
   -3.5965    0.9445   -0.3523 O   0  0  0  0  0  0  0  0  0  0  0  0
    3.2079   -3.0251    0.5155 H   0  0  0  0  0  0  0  0  0  0  0  0
    3.5708   -1.6533    1.5694 H   0  0  0  0  0  0  0  0  0  0  0  0
    4.9613   -2.0419    0.0605 N   0  0  0  0  0  0  0  0  0  0  0  0
    3.5685   -1.9946    0.5320 C   0  0  0  0  0  0  0  0  0  0  0  0
    5.0638   -2.5548   -0.8145 H   0  0  0  0  0  0  0  0  0  0  0  0
    5.7912   -0.5933   -0.0695 S   0  0  0  0  0  0  0  0  0  0  0  0
    5.0236    0.2332   -1.3149 N   0  0  0  0  0  0  0  0  0  0  0  0
    5.6158    0.0914    1.2157 O   0  0  0  0  0  0  0  0  0  0  0  0
    7.1224   -0.9129   -0.5819 O   0  0  0  0  0  0  0  0  0  0  0  0
    4.1261    2.0571   -0.6496 H   0  0  0  0  0  0  0  0  0  0  0  0
    3.3522    1.2162   -2.0095 H   0  0  0  0  0  0  0  0  0  0  0  0
    3.8442    1.0754   -1.0451 C   0  0  0  0  0  0  0  0  0  0  0  0
    5.7261    0.6875   -1.8942 H   0  0  0  0  0  0  0  0  0  0  0  0
   -4.2165    2.2704   -0.4426 C   0  0  0  0  0  0  0  0  0  0  0  0
   -5.0024    2.1926   -1.2000 H   0  0  0  0  0  0  0  0  0  0  0  0
   -3.1413    3.2261   -0.9309 C   0  0  0  0  0  0  0  0  0  0  0  0
   -2.3441    3.3335   -0.1887 H   0  0  0  0  0  0  0  0  0  0  0  0
   -2.7031    2.8748   -1.8683 H   0  0  0  0  0  0  0  0  0  0  0  0
   -3.5913    4.2104   -1.0962 H   0  0  0  0  0  0  0  0  0  0  0  0
   -4.7915    2.6655    0.9107 C   0  0  0  0  0  0  0  0  0  0  0  0
   -5.2757    3.6440    0.8276 H   0  0  0  0  0  0  0  0  0  0  0  0
   -5.5357    1.9462    1.2634 H   0  0  0  0  0  0  0  0  0  0  0  0
   -3.9861    2.7250    1.6476 H   0  0  0  0  0  0  0  0  0  0  0  0
  1 51  1  0  0  0  0
  1 49  1  0  0  0  0
  2  1  1  6  0  0  0
  2  3  1  0  0  0  0
  3 29  1  0  0  0  0
  4  8  1  6  0  0  0
  4  5  1  0  0  0  0
  4  3  1  0  0  0  0
  4 67  1  0  0  0  0
  5  7  1  1  0  0  0
  6  5  1  0  0  0  0
  6  2  1  0  0  0  0
  6  9  1  0  0  0  0
  9 10  1  0  0  0  0
 10 11  2  0  0  0  0
 10 21  1  0  0  0  0
 11 15  1  0  0  0  0
 12 25  1  0  0  0  0
 12 11  1  0  0  0  0
 13 12  2  0  0  0  0
 14 13  1  0  0  0  0
 14  9  2  0  0  0  0
 16 13  1  0  0  0  0
 17 14  1  0  0  0  0
 18 17  1  0  0  0  0
 19 17  1  0  0  0  0
 20 17  1  0  0  0  0
 21 23  1  0  0  0  0
 21 22  1  0  0  0  0
 24 21  1  0  0  0  0
 25 28  1  0  0  0  0
 25 27  1  0  0  0  0
 26 25  1  0  0  0  0
 29 30  1  0  0  0  0
 30 31  2  0  0  0  0
 30 42  1  0  0  0  0
 31 32  1  0  0  0  0
 33 36  2  0  0  0  0
 34 33  1  0  0  0  0
 34 29  2  0  0  0  0
 35 33  1  0  0  0  0
 36 45  1  0  0  0  0
 36 31  1  0  0  0  0
 37 34  1  0  0  0  0
 38 37  1  0  0  0  0
 39 37  1  0  0  0  0
 40 37  1  0  0  0  0
 42 41  1  0  0  0  0
 42 43  1  0  0  0  0
 44 42  1  0  0  0  0
 45 47  1  0  0  0  0
 45 46  1  0  0  0  0
 48 45  1  0  0  0  0
 50  1  1  0  0  0  0
 51 52  1  0  0  0  0
 53 51  1  0  0  0  0
 53 58  1  0  0  0  0
 54 53  2  0  0  0  0
 55 56  2  0  0  0  0
 55 54  1  0  0  0  0
 56 57  1  0  0  0  0
 57 60  1  0  0  0  0
 57 58  2  0  0  0  0
 58 59  1  0  0  0  0
 61 56  1  0  0  0  0
 62 55  1  0  0  0  0
 63 54  1  0  0  0  0
 64 67  1  0  0  0  0
 66 67  1  0  0  0  0
 67 65  1  0  0  0  0
 68 66  1  0  0  0  0
 69 66  1  0  0  0  0
 69 71  2  0  0  0  0
 70 75  1  0  0  0  0
 70 69  1  0  0  0  0
 72 69  2  0  0  0  0
 74 75  1  0  0  0  0
 75 73  1  0  0  0  0
 75  5  1  0  0  0  0
 76 70  1  0  0  0  0
 77 63  1  0  0  0  0
 77 83  1  0  0  0  0
 78 77  1  0  0  0  0
 79 77  1  0  0  0  0
 79 80  1  0  0  0  0
 81 79  1  0  0  0  0
 82 79  1  0  0  0  0
 83 85  1  0  0  0  0
 83 86  1  0  0  0  0
 84 83  1  0  0  0  0
M  END
$$$$
Ru_SIMes_sulfamide_ArOiPr_SO_NH2_iso.log
 OpenBabel10172311093D

 86 90  0  0  1  0  0  0  0  0999 V2000
    1.3793    0.3459    0.1204 Ru  0  0  0  0  0  0  0  0  0  0  0  0
   -0.5597   -0.0071   -0.0799 C   0  0  2  0  0  3  0  0  0  0  0  0
   -1.4587    1.0241   -0.0038 N   0  0  0  0  0  0  0  0  0  0  0  0
   -2.8507    0.5741   -0.1787 C   0  0  1  0  0  0  0  0  0  0  0  0
   -2.7122   -0.9164    0.1405 C   0  0  2  0  0  0  0  0  0  0  0  0
   -1.2817   -1.1525   -0.1388 N   0  0  0  0  0  0  0  0  0  0  0  0
   -2.8833   -1.0639    1.2114 H   0  0  0  0  0  0  0  0  0  0  0  0
   -3.1610    0.7274   -1.2208 H   0  0  0  0  0  0  0  0  0  0  0  0
   -0.7672   -2.4758   -0.2882 C   0  0  0  0  0  0  0  0  0  0  0  0
   -0.6445   -3.3102    0.8334 C   0  0  0  0  0  0  0  0  0  0  0  0
   -0.1038   -4.5874    0.6479 C   0  0  0  0  0  0  0  0  0  0  0  0
    0.3035   -5.0412   -0.6098 C   0  0  0  0  0  0  0  0  0  0  0  0
    0.1436   -4.1889   -1.7094 C   0  0  0  0  0  0  0  0  0  0  0  0
   -0.3890   -2.9047   -1.5739 C   0  0  0  0  0  0  0  0  0  0  0  0
    0.0091   -5.2381    1.5114 H   0  0  0  0  0  0  0  0  0  0  0  0
    0.4504   -4.5285   -2.6957 H   0  0  0  0  0  0  0  0  0  0  0  0
   -0.4734   -1.9827   -2.7639 C   0  0  0  0  0  0  0  0  0  0  0  0
   -1.4623   -1.5224   -2.8608 H   0  0  0  0  0  0  0  0  0  0  0  0
    0.2484   -1.1627   -2.6724 H   0  0  0  0  0  0  0  0  0  0  0  0
   -0.2600   -2.5279   -3.6874 H   0  0  0  0  0  0  0  0  0  0  0  0
   -1.0561   -2.8449    2.2069 C   0  0  0  0  0  0  0  0  0  0  0  0
   -0.6396   -3.5025    2.9752 H   0  0  0  0  0  0  0  0  0  0  0  0
   -2.1472   -2.8558    2.3254 H   0  0  0  0  0  0  0  0  0  0  0  0
   -0.7074   -1.8256    2.3988 H   0  0  0  0  0  0  0  0  0  0  0  0
    0.9230   -6.4067   -0.7805 C   0  0  0  0  0  0  0  0  0  0  0  0
    0.5505   -6.9029   -1.6831 H   0  0  0  0  0  0  0  0  0  0  0  0
    0.7128   -7.0506    0.0787 H   0  0  0  0  0  0  0  0  0  0  0  0
    2.0135   -6.3316   -0.8797 H   0  0  0  0  0  0  0  0  0  0  0  0
   -1.1024    2.4038   -0.1901 C   0  0  0  0  0  0  0  0  0  0  0  0
   -0.8615    3.2190    0.9294 C   0  0  0  0  0  0  0  0  0  0  0  0
   -0.4405    4.5375    0.7101 C   0  0  0  0  0  0  0  0  0  0  0  0
   -0.2339    5.1685    1.5713 H   0  0  0  0  0  0  0  0  0  0  0  0
   -0.6191    4.2451   -1.6653 C   0  0  0  0  0  0  0  0  0  0  0  0
   -1.0234    2.9208   -1.5004 C   0  0  0  0  0  0  0  0  0  0  0  0
   -0.5426    4.6472   -2.6728 H   0  0  0  0  0  0  0  0  0  0  0  0
   -0.2979    5.0628   -0.5743 C   0  0  0  0  0  0  0  0  0  0  0  0
   -1.3979    2.0949   -2.7051 C   0  0  0  0  0  0  0  0  0  0  0  0
   -0.9245    2.4951   -3.6053 H   0  0  0  0  0  0  0  0  0  0  0  0
   -2.4834    2.1138   -2.8681 H   0  0  0  0  0  0  0  0  0  0  0  0
   -1.0871    1.0548   -2.5985 H   0  0  0  0  0  0  0  0  0  0  0  0
   -2.0701    3.1511    2.7003 H   0  0  0  0  0  0  0  0  0  0  0  0
   -1.1120    2.7529    2.3411 C   0  0  0  0  0  0  0  0  0  0  0  0
   -0.3330    3.1193    3.0164 H   0  0  0  0  0  0  0  0  0  0  0  0
   -1.1386    1.6676    2.4153 H   0  0  0  0  0  0  0  0  0  0  0  0
    0.1938    6.4730   -0.7899 C   0  0  0  0  0  0  0  0  0  0  0  0
    0.0770    7.0794    0.1134 H   0  0  0  0  0  0  0  0  0  0  0  0
   -0.3462    6.9629   -1.6073 H   0  0  0  0  0  0  0  0  0  0  0  0
    1.2584    6.4788   -1.0571 H   0  0  0  0  0  0  0  0  0  0  0  0
    1.7741    1.1489   -2.1072 Cl  0  0  0  0  0  0  0  0  0  0  0  0
    1.1851    0.2183    2.5173 Cl  0  0  0  0  0  0  0  0  0  0  0  0
    2.1013   -1.3281   -0.1058 C   0  0  0  0  0  3  0  0  0  0  0  0
    1.5528   -2.2259   -0.3793 H   0  0  0  0  0  0  0  0  0  0  0  0
    3.5171   -1.5212    0.0985 C   0  0  0  0  0  0  0  0  0  0  0  0
    4.3177   -0.3981    0.4213 C   0  0  0  0  0  0  0  0  0  0  0  0
    5.6847   -0.5335    0.6505 C   0  0  0  0  0  0  0  0  0  0  0  0
    6.2587   -1.8060    0.5548 C   0  0  0  0  0  0  0  0  0  0  0  0
    5.4922   -2.9320    0.2343 C   0  0  0  0  0  0  0  0  0  0  0  0
    4.1276   -2.7870    0.0075 C   0  0  0  0  0  0  0  0  0  0  0  0
    3.5080   -3.6454   -0.2385 H   0  0  0  0  0  0  0  0  0  0  0  0
    5.9599   -3.9085    0.1642 H   0  0  0  0  0  0  0  0  0  0  0  0
    7.3245   -1.9117    0.7335 H   0  0  0  0  0  0  0  0  0  0  0  0
    6.3057    0.3179    0.8973 H   0  0  0  0  0  0  0  0  0  0  0  0
    3.6106    0.7681    0.4928 O   0  0  0  0  0  0  0  0  0  0  0  0
   -3.6837    2.3935    0.6109 H   0  0  0  0  0  0  0  0  0  0  0  0
   -3.6384    1.0584    1.7803 H   0  0  0  0  0  0  0  0  0  0  0  0
   -5.2177    1.0510    0.3257 N   0  0  0  0  0  0  0  0  0  0  0  0
   -3.8280    1.3175    0.7317 C   0  0  0  0  0  0  0  0  0  0  0  0
   -5.8868    1.6703    0.7813 H   0  0  0  0  0  0  0  0  0  0  0  0
   -5.7788   -0.5357    0.4595 S   0  0  0  0  0  0  0  0  0  0  0  0
   -5.0243   -1.3169   -0.7963 N   0  0  0  0  0  0  0  0  0  0  0  0
   -5.3122   -1.1952    1.6853 O   0  0  0  0  0  0  0  0  0  0  0  0
   -7.2080   -0.4504    0.1666 O   0  0  0  0  0  0  0  0  0  0  0  0
   -3.7029   -2.8174   -0.1534 H   0  0  0  0  0  0  0  0  0  0  0  0
   -3.2812   -1.9913   -1.6546 H   0  0  0  0  0  0  0  0  0  0  0  0
   -3.6545   -1.8419   -0.6406 C   0  0  0  0  0  0  0  0  0  0  0  0
   -5.1968   -0.8352   -1.6746 H   0  0  0  0  0  0  0  0  0  0  0  0
    4.2905    2.0573    0.6554 C   0  0  0  0  0  0  0  0  0  0  0  0
    5.0142    1.9238    1.4652 H   0  0  0  0  0  0  0  0  0  0  0  0
    3.2341    3.0606    1.0860 C   0  0  0  0  0  0  0  0  0  0  0  0
    2.5023    3.2297    0.2896 H   0  0  0  0  0  0  0  0  0  0  0  0
    2.7082    2.7151    1.9793 H   0  0  0  0  0  0  0  0  0  0  0  0
    3.7233    4.0143    1.3095 H   0  0  0  0  0  0  0  0  0  0  0  0
    4.9820    2.4449   -0.6445 C   0  0  0  0  0  0  0  0  0  0  0  0
    5.5121    3.3927   -0.5049 H   0  0  0  0  0  0  0  0  0  0  0  0
    5.7088    1.6915   -0.9602 H   0  0  0  0  0  0  0  0  0  0  0  0
    4.2360    2.5640   -1.4349 H   0  0  0  0  0  0  0  0  0  0  0  0
  1 50  1  0  0  0  0
  2  3  1  0  0  0  0
  2  1  1  1  0  0  0
  4  8  1  6  0  0  0
  4  3  1  0  0  0  0
  4  5  1  0  0  0  0
  4 67  1  0  0  0  0
  5  7  1  1  0  0  0
  6  2  1  0  0  0  0
  6  5  1  0  0  0  0
  9  6  1  0  0  0  0
  9 10  1  0  0  0  0
 10 21  1  0  0  0  0
 11 10  2  0  0  0  0
 11 15  1  0  0  0  0
 12 11  1  0  0  0  0
 13 14  1  0  0  0  0
 13 12  2  0  0  0  0
 14  9  2  0  0  0  0
 16 13  1  0  0  0  0
 17 19  1  0  0  0  0
 17 14  1  0  0  0  0
 18 17  1  0  0  0  0
 20 17  1  0  0  0  0
 21 23  1  0  0  0  0
 21 24  1  0  0  0  0
 21 22  1  0  0  0  0
 25 12  1  0  0  0  0
 25 27  1  0  0  0  0
 26 25  1  0  0  0  0
 28 25  1  0  0  0  0
 29  3  1  0  0  0  0
 29 30  1  0  0  0  0
 30 42  1  0  0  0  0
 31 30  2  0  0  0  0
 31 32  1  0  0  0  0
 33 34  1  0  0  0  0
 33 36  2  0  0  0  0
 34 29  2  0  0  0  0
 35 33  1  0  0  0  0
 36 31  1  0  0  0  0
 37 40  1  0  0  0  0
 37 34  1  0  0  0  0
 38 37  1  0  0  0  0
 39 37  1  0  0  0  0
 42 44  1  0  0  0  0
 42 41  1  0  0  0  0
 42 43  1  0  0  0  0
 45 36  1  0  0  0  0
 45 46  1  0  0  0  0
 47 45  1  0  0  0  0
 48 45  1  0  0  0  0
 49  1  1  0  0  0  0
 51 53  1  0  0  0  0
 51  1  1  0  0  0  0
 52 51  1  0  0  0  0
 53 54  1  0  0  0  0
 54 63  1  0  0  0  0
 54 55  2  0  0  0  0
 55 62  1  0  0  0  0
 56 55  1  0  0  0  0
 56 61  1  0  0  0  0
 57 56  2  0  0  0  0
 58 53  2  0  0  0  0
 58 57  1  0  0  0  0
 59 58  1  0  0  0  0
 60 57  1  0  0  0  0
 63 77  1  0  0  0  0
 64 67  1  0  0  0  0
 66 69  1  0  0  0  0
 66 67  1  0  0  0  0
 66 68  1  0  0  0  0
 67 65  1  0  0  0  0
 69 71  2  0  0  0  0
 70 75  1  0  0  0  0
 70 69  1  0  0  0  0
 72 69  2  0  0  0  0
 74 75  1  0  0  0  0
 75 73  1  0  0  0  0
 75  5  1  0  0  0  0
 76 70  1  0  0  0  0
 77 79  1  0  0  0  0
 77 78  1  0  0  0  0
 79 82  1  0  0  0  0
 79 81  1  0  0  0  0
 80 79  1  0  0  0  0
 83 84  1  0  0  0  0
 83 77  1  0  0  0  0
 85 83  1  0  0  0  0
 86 83  1  0  0  0  0
M  END
$$$$
Ru_SIMes_sulfamide_ArOiPr_SO_NH2.log
 OpenBabel10172311093D

 86 90  0  0  1  0  0  0  0  0999 V2000
   -1.3713    0.3887   -0.1353 Ru  0  0  0  0  0  0  0  0  0  0  0  0
    0.5576   -0.0594   -0.0495 C   0  0  1  0  0  3  0  0  0  0  0  0
    1.2286   -1.2394   -0.0068 N   0  0  0  0  0  0  0  0  0  0  0  0
    2.6618   -1.0870   -0.3304 C   0  0  1  0  0  0  0  0  0  0  0  0
    2.8676    0.4080   -0.0730 C   0  0  2  0  0  0  0  0  0  0  0  0
    1.4947    0.9279   -0.1810 N   0  0  0  0  0  0  0  0  0  0  0  0
    3.2228    0.5528    0.9512 H   0  0  0  0  0  0  0  0  0  0  0  0
    2.8176   -1.3243   -1.3907 H   0  0  0  0  0  0  0  0  0  0  0  0
    1.2267    2.3219    0.0515 C   0  0  0  0  0  0  0  0  0  0  0  0
    1.2685    2.8151    1.3733 C   0  0  0  0  0  0  0  0  0  0  0  0
    0.9611    4.1581    1.5884 C   0  0  0  0  0  0  0  0  0  0  0  0
    0.6189    5.0177    0.5369 C   0  0  0  0  0  0  0  0  0  0  0  0
    0.6367    4.5108   -0.7622 C   0  0  0  0  0  0  0  0  0  0  0  0
    0.9575    3.1738   -1.0334 C   0  0  0  0  0  0  0  0  0  0  0  0
    0.9799    4.5422    2.6056 H   0  0  0  0  0  0  0  0  0  0  0  0
    0.4100    5.1708   -1.5962 H   0  0  0  0  0  0  0  0  0  0  0  0
    1.0703    2.7282   -2.4692 C   0  0  0  0  0  0  0  0  0  0  0  0
    2.0116    3.0941   -2.9002 H   0  0  0  0  0  0  0  0  0  0  0  0
    1.0381    1.6448   -2.5660 H   0  0  0  0  0  0  0  0  0  0  0  0
    0.2554    3.1428   -3.0701 H   0  0  0  0  0  0  0  0  0  0  0  0
    1.6691    1.9453    2.5384 C   0  0  0  0  0  0  0  0  0  0  0  0
    1.2703    2.3510    3.4717 H   0  0  0  0  0  0  0  0  0  0  0  0
    2.7618    1.9050    2.6382 H   0  0  0  0  0  0  0  0  0  0  0  0
    1.2978    0.9252    2.4332 H   0  0  0  0  0  0  0  0  0  0  0  0
    0.2365    6.4517    0.8098 C   0  0  0  0  0  0  0  0  0  0  0  0
    0.3076    7.0632   -0.0948 H   0  0  0  0  0  0  0  0  0  0  0  0
    0.8784    6.8960    1.5782 H   0  0  0  0  0  0  0  0  0  0  0  0
   -0.7967    6.5183    1.1743 H   0  0  0  0  0  0  0  0  0  0  0  0
    0.6399   -2.5323    0.1464 C   0  0  0  0  0  0  0  0  0  0  0  0
    0.3143   -2.9651    1.4443 C   0  0  0  0  0  0  0  0  0  0  0  0
   -0.3074   -4.2079    1.5885 C   0  0  0  0  0  0  0  0  0  0  0  0
   -0.5805   -4.5459    2.5850 H   0  0  0  0  0  0  0  0  0  0  0  0
   -0.2464   -4.5608   -0.7885 C   0  0  0  0  0  0  0  0  0  0  0  0
    0.3810   -3.3254   -0.9825 C   0  0  0  0  0  0  0  0  0  0  0  0
   -0.4719   -5.1751   -1.6567 H   0  0  0  0  0  0  0  0  0  0  0  0
   -0.6005   -5.0178    0.4846 C   0  0  0  0  0  0  0  0  0  0  0  0
    0.7329   -2.8559   -2.3710 C   0  0  0  0  0  0  0  0  0  0  0  0
    0.2138   -3.4583   -3.1220 H   0  0  0  0  0  0  0  0  0  0  0  0
    1.8090   -2.9500   -2.5643 H   0  0  0  0  0  0  0  0  0  0  0  0
    0.4542   -1.8082   -2.5175 H   0  0  0  0  0  0  0  0  0  0  0  0
    1.5865   -1.7377    2.6997 H   0  0  0  0  0  0  0  0  0  0  0  0
    0.5489   -2.0823    2.6433 C   0  0  0  0  0  0  0  0  0  0  0  0
    0.3185   -2.6205    3.5669 H   0  0  0  0  0  0  0  0  0  0  0  0
   -0.0830   -1.1877    2.5982 H   0  0  0  0  0  0  0  0  0  0  0  0
   -1.2615   -6.3617    0.6692 C   0  0  0  0  0  0  0  0  0  0  0  0
   -1.9788   -6.3422    1.4960 H   0  0  0  0  0  0  0  0  0  0  0  0
   -0.5179   -7.1351    0.9017 H   0  0  0  0  0  0  0  0  0  0  0  0
   -1.7878   -6.6746   -0.2377 H   0  0  0  0  0  0  0  0  0  0  0  0
   -1.5795    1.1575    2.1303 Cl  0  0  0  0  0  0  0  0  0  0  0  0
   -1.3366    0.3107   -2.5411 Cl  0  0  0  0  0  0  0  0  0  0  0  0
   -2.1640   -1.2505    0.1074 C   0  0  0  0  0  3  0  0  0  0  0  0
   -1.6473   -2.1799    0.3305 H   0  0  0  0  0  0  0  0  0  0  0  0
   -3.5981   -1.3681   -0.0057 C   0  0  0  0  0  0  0  0  0  0  0  0
   -4.3602   -0.2008   -0.2558 C   0  0  0  0  0  0  0  0  0  0  0  0
   -5.7448   -0.2642   -0.3923 C   0  0  0  0  0  0  0  0  0  0  0  0
   -6.3751   -1.5079   -0.2758 C   0  0  0  0  0  0  0  0  0  0  0  0
   -5.6469   -2.6763   -0.0253 C   0  0  0  0  0  0  0  0  0  0  0  0
   -4.2645   -2.6035    0.1087 C   0  0  0  0  0  0  0  0  0  0  0  0
   -3.6735   -3.4953    0.2995 H   0  0  0  0  0  0  0  0  0  0  0  0
   -6.1580   -3.6293    0.0632 H   0  0  0  0  0  0  0  0  0  0  0  0
   -7.4546   -1.5569   -0.3817 H   0  0  0  0  0  0  0  0  0  0  0  0
   -6.3373    0.6212   -0.5829 H   0  0  0  0  0  0  0  0  0  0  0  0
   -3.6016    0.9303   -0.3566 O   0  0  0  0  0  0  0  0  0  0  0  0
    3.2060   -3.0170    0.4602 H   0  0  0  0  0  0  0  0  0  0  0  0
    3.5754   -1.6643    1.5491 H   0  0  0  0  0  0  0  0  0  0  0  0
    4.9262   -2.0202   -0.0772 N   0  0  0  0  0  0  0  0  0  0  0  0
    3.5735   -1.9895    0.5016 C   0  0  0  0  0  0  0  0  0  0  0  0
    5.5111   -2.7480    0.3318 H   0  0  0  0  0  0  0  0  0  0  0  0
    5.8039   -0.5754   -0.0867 S   0  0  0  0  0  0  0  0  0  0  0  0
    5.0818    0.3115   -1.2881 N   0  0  0  0  0  0  0  0  0  0  0  0
    5.6277    0.1926    1.1518 O   0  0  0  0  0  0  0  0  0  0  0  0
    7.1416   -0.9588   -0.5334 O   0  0  0  0  0  0  0  0  0  0  0  0
    4.1208    2.0729   -0.6516 H   0  0  0  0  0  0  0  0  0  0  0  0
    3.3797    1.2173   -2.0102 H   0  0  0  0  0  0  0  0  0  0  0  0
    3.8501    1.0868   -1.0350 C   0  0  0  0  0  0  0  0  0  0  0  0
    5.0844   -0.2054   -2.1632 H   0  0  0  0  0  0  0  0  0  0  0  0
   -4.2267    2.2537   -0.4499 C   0  0  0  0  0  0  0  0  0  0  0  0
   -5.0108    2.1717   -1.2087 H   0  0  0  0  0  0  0  0  0  0  0  0
   -3.1542    3.2128   -0.9372 C   0  0  0  0  0  0  0  0  0  0  0  0
   -2.3596    3.3254   -0.1930 H   0  0  0  0  0  0  0  0  0  0  0  0
   -2.7121    2.8614   -1.8726 H   0  0  0  0  0  0  0  0  0  0  0  0
   -3.6080    4.1948   -1.1059 H   0  0  0  0  0  0  0  0  0  0  0  0
   -4.8062    2.6484    0.9017 C   0  0  0  0  0  0  0  0  0  0  0  0
   -5.2942    3.6247    0.8161 H   0  0  0  0  0  0  0  0  0  0  0  0
   -5.5481    1.9266    1.2539 H   0  0  0  0  0  0  0  0  0  0  0  0
   -4.0026    2.7124    1.6403 H   0  0  0  0  0  0  0  0  0  0  0  0
  1 51  1  0  0  0  0
  1 49  1  0  0  0  0
  2  1  1  6  0  0  0
  2  3  1  0  0  0  0
  3 29  1  0  0  0  0
  4  8  1  6  0  0  0
  4  5  1  0  0  0  0
  4  3  1  0  0  0  0
  4 67  1  0  0  0  0
  5  7  1  1  0  0  0
  6  5  1  0  0  0  0
  6  2  1  0  0  0  0
  6  9  1  0  0  0  0
  9 10  1  0  0  0  0
 10 11  2  0  0  0  0
 10 21  1  0  0  0  0
 11 15  1  0  0  0  0
 12 25  1  0  0  0  0
 12 11  1  0  0  0  0
 13 12  2  0  0  0  0
 14 13  1  0  0  0  0
 14  9  2  0  0  0  0
 16 13  1  0  0  0  0
 17 14  1  0  0  0  0
 18 17  1  0  0  0  0
 19 17  1  0  0  0  0
 20 17  1  0  0  0  0
 21 23  1  0  0  0  0
 21 22  1  0  0  0  0
 24 21  1  0  0  0  0
 25 28  1  0  0  0  0
 25 27  1  0  0  0  0
 26 25  1  0  0  0  0
 29 30  1  0  0  0  0
 30 31  2  0  0  0  0
 30 42  1  0  0  0  0
 31 32  1  0  0  0  0
 33 36  2  0  0  0  0
 34 33  1  0  0  0  0
 34 29  2  0  0  0  0
 35 33  1  0  0  0  0
 36 45  1  0  0  0  0
 36 31  1  0  0  0  0
 37 34  1  0  0  0  0
 38 37  1  0  0  0  0
 39 37  1  0  0  0  0
 40 37  1  0  0  0  0
 42 41  1  0  0  0  0
 42 43  1  0  0  0  0
 44 42  1  0  0  0  0
 45 47  1  0  0  0  0
 45 46  1  0  0  0  0
 48 45  1  0  0  0  0
 50  1  1  0  0  0  0
 51 52  1  0  0  0  0
 53 51  1  0  0  0  0
 53 58  1  0  0  0  0
 54 53  2  0  0  0  0
 55 56  2  0  0  0  0
 55 54  1  0  0  0  0
 56 57  1  0  0  0  0
 57 60  1  0  0  0  0
 57 58  2  0  0  0  0
 58 59  1  0  0  0  0
 61 56  1  0  0  0  0
 62 55  1  0  0  0  0
 63 54  1  0  0  0  0
 64 67  1  0  0  0  0
 66 68  1  0  0  0  0
 66 67  1  0  0  0  0
 67 65  1  0  0  0  0
 69 66  1  0  0  0  0
 69 71  2  0  0  0  0
 70 75  1  0  0  0  0
 70 69  1  0  0  0  0
 72 69  2  0  0  0  0
 74 75  1  0  0  0  0
 75 73  1  0  0  0  0
 75  5  1  0  0  0  0
 76 70  1  0  0  0  0
 77 63  1  0  0  0  0
 77 83  1  0  0  0  0
 78 77  1  0  0  0  0
 79 77  1  0  0  0  0
 79 80  1  0  0  0  0
 81 79  1  0  0  0  0
 82 79  1  0  0  0  0
 83 85  1  0  0  0  0
 83 86  1  0  0  0  0
 84 83  1  0  0  0  0
M  END
$$$$
Ru_SIMes_sulfamide_ArOiPr_SO.log
 OpenBabel10172311093D

 86 90  0  0  1  0  0  0  0  0999 V2000
   -1.3710   -0.3882    0.1359 Ru  0  0  0  0  0  0  0  0  0  0  0  0
    0.5588    0.0560    0.0417 C   0  0  1  0  0  3  0  0  0  0  0  0
    1.2312    1.2347    0.0034 N   0  0  0  0  0  0  0  0  0  0  0  0
    2.6647    1.0792    0.3301 C   0  0  1  0  0  0  0  0  0  0  0  0
    2.8678   -0.4159    0.0570 C   0  0  2  0  0  0  0  0  0  0  0  0
    1.4946   -0.9334    0.1670 N   0  0  0  0  0  0  0  0  0  0  0  0
    3.2172   -0.5506   -0.9706 H   0  0  0  0  0  0  0  0  0  0  0  0
    2.8217    1.3010    1.3922 H   0  0  0  0  0  0  0  0  0  0  0  0
    1.2255   -2.3274   -0.0643 C   0  0  0  0  0  0  0  0  0  0  0  0
    1.2704   -2.8216   -1.3858 C   0  0  0  0  0  0  0  0  0  0  0  0
    0.9663   -4.1652   -1.6009 C   0  0  0  0  0  0  0  0  0  0  0  0
    0.6231   -5.0250   -0.5497 C   0  0  0  0  0  0  0  0  0  0  0  0
    0.6351   -4.5167    0.7487 C   0  0  0  0  0  0  0  0  0  0  0  0
    0.9526   -3.1787    1.0201 C   0  0  0  0  0  0  0  0  0  0  0  0
    0.9879   -4.5499   -2.6179 H   0  0  0  0  0  0  0  0  0  0  0  0
    0.4062   -5.1761    1.5826 H   0  0  0  0  0  0  0  0  0  0  0  0
    1.0540   -2.7331    2.4568 C   0  0  0  0  0  0  0  0  0  0  0  0
    1.9798   -3.1195    2.9028 H   0  0  0  0  0  0  0  0  0  0  0  0
    1.0443   -1.6491    2.5516 H   0  0  0  0  0  0  0  0  0  0  0  0
    0.2207   -3.1276    3.0459 H   0  0  0  0  0  0  0  0  0  0  0  0
    1.6683   -1.9511   -2.5513 C   0  0  0  0  0  0  0  0  0  0  0  0
    1.2721   -2.3595   -3.4846 H   0  0  0  0  0  0  0  0  0  0  0  0
    2.7607   -1.9055   -2.6507 H   0  0  0  0  0  0  0  0  0  0  0  0
    1.2919   -0.9327   -2.4470 H   0  0  0  0  0  0  0  0  0  0  0  0
    0.2453   -6.4602   -0.8226 C   0  0  0  0  0  0  0  0  0  0  0  0
    0.3140   -7.0704    0.0831 H   0  0  0  0  0  0  0  0  0  0  0  0
    0.8916   -6.9038   -1.5877 H   0  0  0  0  0  0  0  0  0  0  0  0
   -0.7862   -6.5297   -1.1913 H   0  0  0  0  0  0  0  0  0  0  0  0
    0.6439    2.5278   -0.1527 C   0  0  0  0  0  0  0  0  0  0  0  0
    0.3168    2.9568   -1.4516 C   0  0  0  0  0  0  0  0  0  0  0  0
   -0.3034    4.2000   -1.5990 C   0  0  0  0  0  0  0  0  0  0  0  0
   -0.5778    4.5349   -2.5962 H   0  0  0  0  0  0  0  0  0  0  0  0
   -0.2370    4.5612    0.7765 C   0  0  0  0  0  0  0  0  0  0  0  0
    0.3891    3.3256    0.9737 C   0  0  0  0  0  0  0  0  0  0  0  0
   -0.4594    5.1791    1.6430 H   0  0  0  0  0  0  0  0  0  0  0  0
   -0.5933    5.0141   -0.4974 C   0  0  0  0  0  0  0  0  0  0  0  0
    0.7454    2.8616    2.3628 C   0  0  0  0  0  0  0  0  0  0  0  0
    0.2313    3.4688    3.1132 H   0  0  0  0  0  0  0  0  0  0  0  0
    1.8227    2.9532    2.5507 H   0  0  0  0  0  0  0  0  0  0  0  0
    0.4646    1.8153    2.5149 H   0  0  0  0  0  0  0  0  0  0  0  0
    1.5855    1.7226   -2.7034 H   0  0  0  0  0  0  0  0  0  0  0  0
    0.5488    2.0699   -2.6481 C   0  0  0  0  0  0  0  0  0  0  0  0
    0.3197    2.6062   -3.5732 H   0  0  0  0  0  0  0  0  0  0  0  0
   -0.0855    1.1771   -2.6006 H   0  0  0  0  0  0  0  0  0  0  0  0
   -1.2530    6.3583   -0.6855 C   0  0  0  0  0  0  0  0  0  0  0  0
   -1.9723    6.3366   -1.5106 H   0  0  0  0  0  0  0  0  0  0  0  0
   -0.5090    7.1298   -0.9227 H   0  0  0  0  0  0  0  0  0  0  0  0
   -1.7768    6.6752    0.2214 H   0  0  0  0  0  0  0  0  0  0  0  0
   -1.5860   -1.1715   -2.1237 Cl  0  0  0  0  0  0  0  0  0  0  0  0
   -1.3270   -0.2942    2.5408 Cl  0  0  0  0  0  0  0  0  0  0  0  0
   -2.1619    1.2507   -0.1144 C   0  0  0  0  0  3  0  0  0  0  0  0
   -1.6446    2.1776   -0.3462 H   0  0  0  0  0  0  0  0  0  0  0  0
   -3.5953    1.3718    0.0047 C   0  0  0  0  0  0  0  0  0  0  0  0
   -4.3585    0.2076    0.2653 C   0  0  0  0  0  0  0  0  0  0  0  0
   -5.7423    0.2745    0.4086 C   0  0  0  0  0  0  0  0  0  0  0  0
   -6.3706    1.5189    0.2883 C   0  0  0  0  0  0  0  0  0  0  0  0
   -5.6413    2.6843    0.0273 C   0  0  0  0  0  0  0  0  0  0  0  0
   -4.2597    2.6079   -0.1134 C   0  0  0  0  0  0  0  0  0  0  0  0
   -3.6679    3.4974   -0.3121 H   0  0  0  0  0  0  0  0  0  0  0  0
   -6.1509    3.6379   -0.0639 H   0  0  0  0  0  0  0  0  0  0  0  0
   -7.4495    1.5707    0.3995 H   0  0  0  0  0  0  0  0  0  0  0  0
   -6.3355   -0.6086    0.6071 H   0  0  0  0  0  0  0  0  0  0  0  0
   -3.6016   -0.9245    0.3688 O   0  0  0  0  0  0  0  0  0  0  0  0
    3.1912    3.0149   -0.4582 H   0  0  0  0  0  0  0  0  0  0  0  0
    3.5785    1.6651   -1.5448 H   0  0  0  0  0  0  0  0  0  0  0  0
    4.9273    2.0460    0.0802 N   0  0  0  0  0  0  0  0  0  0  0  0
    3.5714    1.9918   -0.4975 C   0  0  0  0  0  0  0  0  0  0  0  0
    5.5098    2.7301   -0.4036 H   0  0  0  0  0  0  0  0  0  0  0  0
    5.7885    0.5891    0.1099 S   0  0  0  0  0  0  0  0  0  0  0  0
    4.9771   -0.2123    1.3244 N   0  0  0  0  0  0  0  0  0  0  0  0
    5.6350   -0.1315   -1.1639 O   0  0  0  0  0  0  0  0  0  0  0  0
    7.1234    0.9172    0.6106 O   0  0  0  0  0  0  0  0  0  0  0  0
    4.1781   -2.0578    0.5861 H   0  0  0  0  0  0  0  0  0  0  0  0
    3.3541   -1.2957    1.9640 H   0  0  0  0  0  0  0  0  0  0  0  0
    3.8494   -1.1034    1.0110 C   0  0  0  0  0  0  0  0  0  0  0  0
    5.6409   -0.5729    2.0045 H   0  0  0  0  0  0  0  0  0  0  0  0
   -4.2292   -2.2458    0.4728 C   0  0  0  0  0  0  0  0  0  0  0  0
   -5.0094   -2.1577    1.2349 H   0  0  0  0  0  0  0  0  0  0  0  0
   -3.1568   -3.2048    0.9608 C   0  0  0  0  0  0  0  0  0  0  0  0
   -2.3662   -3.3241    0.2134 H   0  0  0  0  0  0  0  0  0  0  0  0
   -2.7091   -2.8488    1.8919 H   0  0  0  0  0  0  0  0  0  0  0  0
   -3.6124   -4.1845    1.1379 H   0  0  0  0  0  0  0  0  0  0  0  0
   -4.8159   -2.6470   -0.8737 C   0  0  0  0  0  0  0  0  0  0  0  0
   -5.3057   -3.6218   -0.7801 H   0  0  0  0  0  0  0  0  0  0  0  0
   -5.5579   -1.9256   -1.2265 H   0  0  0  0  0  0  0  0  0  0  0  0
   -4.0161   -2.7172   -1.6157 H   0  0  0  0  0  0  0  0  0  0  0  0
  1 50  1  0  0  0  0
  2  1  1  1  0  0  0
  2  6  1  0  0  0  0
  3  2  1  0  0  0  0
  3  4  1  0  0  0  0
  4  8  1  1  0  0  0
  5  7  1  6  0  0  0
  5  6  1  0  0  0  0
  5  4  1  0  0  0  0
  5 75  1  0  0  0  0
  9  6  1  0  0  0  0
  9 14  1  0  0  0  0
 10  9  2  0  0  0  0
 11 10  1  0  0  0  0
 11 12  2  0  0  0  0
 12 13  1  0  0  0  0
 13 14  2  0  0  0  0
 13 16  1  0  0  0  0
 14 17  1  0  0  0  0
 15 11  1  0  0  0  0
 17 19  1  0  0  0  0
 17 18  1  0  0  0  0
 17 20  1  0  0  0  0
 21 24  1  0  0  0  0
 21 10  1  0  0  0  0
 22 21  1  0  0  0  0
 23 21  1  0  0  0  0
 25 12  1  0  0  0  0
 25 26  1  0  0  0  0
 27 25  1  0  0  0  0
 28 25  1  0  0  0  0
 29  3  1  0  0  0  0
 29 34  1  0  0  0  0
 30 29  2  0  0  0  0
 31 30  1  0  0  0  0
 31 36  2  0  0  0  0
 32 31  1  0  0  0  0
 33 34  2  0  0  0  0
 33 35  1  0  0  0  0
 34 37  1  0  0  0  0
 36 33  1  0  0  0  0
 37 40  1  0  0  0  0
 37 39  1  0  0  0  0
 37 38  1  0  0  0  0
 41 42  1  0  0  0  0
 42 44  1  0  0  0  0
 42 30  1  0  0  0  0
 43 42  1  0  0  0  0
 45 36  1  0  0  0  0
 45 48  1  0  0  0  0
 46 45  1  0  0  0  0
 47 45  1  0  0  0  0
 49  1  1  0  0  0  0
 51 53  1  0  0  0  0
 51  1  1  0  0  0  0
 52 51  1  0  0  0  0
 53 54  1  0  0  0  0
 54 63  1  0  0  0  0
 54 55  2  0  0  0  0
 55 62  1  0  0  0  0
 56 61  1  0  0  0  0
 56 55  1  0  0  0  0
 57 56  2  0  0  0  0
 58 53  2  0  0  0  0
 58 57  1  0  0  0  0
 59 58  1  0  0  0  0
 60 57  1  0  0  0  0
 63 77  1  0  0  0  0
 65 67  1  0  0  0  0
 66 69  1  0  0  0  0
 67 64  1  0  0  0  0
 67 66  1  0  0  0  0
 67  4  1  0  0  0  0
 68 66  1  0  0  0  0
 69 72  2  0  0  0  0
 69 70  1  0  0  0  0
 70 76  1  0  0  0  0
 71 69  2  0  0  0  0
 73 75  1  0  0  0  0
 75 70  1  0  0  0  0
 75 74  1  0  0  0  0
 77 79  1  0  0  0  0
 77 78  1  0  0  0  0
 79 82  1  0  0  0  0
 79 81  1  0  0  0  0
 80 79  1  0  0  0  0
 83 84  1  0  0  0  0
 83 77  1  0  0  0  0
 85 83  1  0  0  0  0
 86 83  1  0  0  0  0
M  END
$$$$
Ru_SIMes_sulfamide_ArOiPr.log
 OpenBabel10172311093D

 86 90  0  0  1  0  0  0  0  0999 V2000
    1.3823   -0.3411   -0.1206 Ru  0  0  0  0  0  0  0  0  0  0  0  0
   -0.5582    0.0047    0.0792 C   0  0  1  0  0  3  0  0  0  0  0  0
   -1.2851    1.1469    0.1387 N   0  0  0  0  0  0  0  0  0  0  0  0
   -2.7147    0.9047   -0.1402 C   0  0  1  0  0  0  0  0  0  0  0  0
   -2.8466   -0.5866    0.1780 C   0  0  2  0  0  0  0  0  0  0  0  0
   -1.4526   -1.0304    0.0027 N   0  0  0  0  0  0  0  0  0  0  0  0
   -3.1561   -0.7420    1.2200 H   0  0  0  0  0  0  0  0  0  0  0  0
   -2.8869    1.0524   -1.2109 H   0  0  0  0  0  0  0  0  0  0  0  0
   -1.0904   -2.4085    0.1898 C   0  0  0  0  0  0  0  0  0  0  0  0
   -1.0092   -2.9245    1.5001 C   0  0  0  0  0  0  0  0  0  0  0  0
   -0.5991   -4.2471    1.6655 C   0  0  0  0  0  0  0  0  0  0  0  0
   -0.2742   -5.0636    0.5750 C   0  0  0  0  0  0  0  0  0  0  0  0
   -0.4193   -4.5395   -0.7098 C   0  0  0  0  0  0  0  0  0  0  0  0
   -0.8459   -3.2231   -0.9296 C   0  0  0  0  0  0  0  0  0  0  0  0
   -0.5211   -4.6486    2.6732 H   0  0  0  0  0  0  0  0  0  0  0  0
   -0.2102   -5.1701   -1.5707 H   0  0  0  0  0  0  0  0  0  0  0  0
   -1.0983   -2.7585   -2.3415 C   0  0  0  0  0  0  0  0  0  0  0  0
   -2.0546   -3.1609   -2.7007 H   0  0  0  0  0  0  0  0  0  0  0  0
   -1.1295   -1.6733   -2.4160 H   0  0  0  0  0  0  0  0  0  0  0  0
   -0.3176   -3.1216   -3.0164 H   0  0  0  0  0  0  0  0  0  0  0  0
   -1.3874   -2.1000    2.7046 C   0  0  0  0  0  0  0  0  0  0  0  0
   -0.9111   -2.4971    3.6047 H   0  0  0  0  0  0  0  0  0  0  0  0
   -2.4727   -2.1249    2.8684 H   0  0  0  0  0  0  0  0  0  0  0  0
   -1.0824   -1.0583    2.5972 H   0  0  0  0  0  0  0  0  0  0  0  0
    0.2265   -6.4708    0.7904 C   0  0  0  0  0  0  0  0  0  0  0  0
    0.0940   -7.0839   -0.1062 H   0  0  0  0  0  0  0  0  0  0  0  0
   -0.2949   -6.9568    1.6219 H   0  0  0  0  0  0  0  0  0  0  0  0
    1.2966   -6.4709    1.0353 H   0  0  0  0  0  0  0  0  0  0  0  0
   -0.7781    2.4733    0.2874 C   0  0  0  0  0  0  0  0  0  0  0  0
   -0.4011    2.9047    1.5718 C   0  0  0  0  0  0  0  0  0  0  0  0
    0.1260    4.1921    1.7058 C   0  0  0  0  0  0  0  0  0  0  0  0
    0.4367    4.5319    2.6906 H   0  0  0  0  0  0  0  0  0  0  0  0
   -0.1220    4.5856   -0.6524 C   0  0  0  0  0  0  0  0  0  0  0  0
   -0.6570    3.3066   -0.8362 C   0  0  0  0  0  0  0  0  0  0  0  0
   -0.0052    5.2333   -1.5178 H   0  0  0  0  0  0  0  0  0  0  0  0
    0.2762    5.0457    0.6068 C   0  0  0  0  0  0  0  0  0  0  0  0
   -1.0603    2.8348   -2.2100 C   0  0  0  0  0  0  0  0  0  0  0  0
   -0.6439    3.4923   -2.9785 H   0  0  0  0  0  0  0  0  0  0  0  0
   -2.1509    2.8404   -2.3327 H   0  0  0  0  0  0  0  0  0  0  0  0
   -0.7061    1.8166   -2.3977 H   0  0  0  0  0  0  0  0  0  0  0  0
   -1.4611    1.5154    2.8614 H   0  0  0  0  0  0  0  0  0  0  0  0
   -0.4755    1.9822    2.7620 C   0  0  0  0  0  0  0  0  0  0  0  0
   -0.2635    2.5289    3.6850 H   0  0  0  0  0  0  0  0  0  0  0  0
    0.2513    1.1667    2.6689 H   0  0  0  0  0  0  0  0  0  0  0  0
    0.8313    6.4381    0.7811 C   0  0  0  0  0  0  0  0  0  0  0  0
    1.5627    6.4766    1.5946 H   0  0  0  0  0  0  0  0  0  0  0  0
    0.0325    7.1500    1.0264 H   0  0  0  0  0  0  0  0  0  0  0  0
    1.3141    6.7916   -0.1353 H   0  0  0  0  0  0  0  0  0  0  0  0
    1.7793   -1.1390    2.1086 Cl  0  0  0  0  0  0  0  0  0  0  0  0
    1.1894   -0.2168   -2.5178 Cl  0  0  0  0  0  0  0  0  0  0  0  0
    2.0971    1.3361    0.1044 C   0  0  0  0  0  3  0  0  0  0  0  0
    1.5446    2.2321    0.3761 H   0  0  0  0  0  0  0  0  0  0  0  0
    3.5124    1.5343   -0.0988 C   0  0  0  0  0  0  0  0  0  0  0  0
    4.3174    0.4140   -0.4200 C   0  0  0  0  0  0  0  0  0  0  0  0
    5.6841    0.5544   -0.6482 C   0  0  0  0  0  0  0  0  0  0  0  0
    6.2532    1.8292   -0.5532 C   0  0  0  0  0  0  0  0  0  0  0  0
    5.4821    2.9525   -0.2342 C   0  0  0  0  0  0  0  0  0  0  0  0
    4.1180    2.8025   -0.0084 C   0  0  0  0  0  0  0  0  0  0  0  0
    3.4946    3.6585    0.2363 H   0  0  0  0  0  0  0  0  0  0  0  0
    5.9461    3.9308   -0.1646 H   0  0  0  0  0  0  0  0  0  0  0  0
    7.3187    1.9386   -0.7311 H   0  0  0  0  0  0  0  0  0  0  0  0
    6.3084   -0.2949   -0.8938 H   0  0  0  0  0  0  0  0  0  0  0  0
    3.6149   -0.7550   -0.4911 O   0  0  0  0  0  0  0  0  0  0  0  0
   -3.7132    2.8013    0.1563 H   0  0  0  0  0  0  0  0  0  0  0  0
   -3.2881    1.9747    1.6564 H   0  0  0  0  0  0  0  0  0  0  0  0
   -5.0285    1.2944    0.7971 N   0  0  0  0  0  0  0  0  0  0  0  0
   -3.6608    1.8253    0.6421 C   0  0  0  0  0  0  0  0  0  0  0  0
   -5.1993    0.8117    1.6752 H   0  0  0  0  0  0  0  0  0  0  0  0
   -5.7796    0.5107   -0.4591 S   0  0  0  0  0  0  0  0  0  0  0  0
   -5.2115   -1.0736   -0.3265 N   0  0  0  0  0  0  0  0  0  0  0  0
   -7.2084    0.4189   -0.1661 O   0  0  0  0  0  0  0  0  0  0  0  0
   -5.3162    1.1730   -1.6846 O   0  0  0  0  0  0  0  0  0  0  0  0
   -3.6717   -2.4092   -0.6125 H   0  0  0  0  0  0  0  0  0  0  0  0
   -3.6323   -1.0733   -1.7812 H   0  0  0  0  0  0  0  0  0  0  0  0
   -3.8207   -1.3338   -0.7328 C   0  0  0  0  0  0  0  0  0  0  0  0
   -5.8779   -1.6954   -0.7827 H   0  0  0  0  0  0  0  0  0  0  0  0
    4.2997   -2.0419   -0.6516 C   0  0  0  0  0  0  0  0  0  0  0  0
    5.0232   -1.9068   -1.4614 H   0  0  0  0  0  0  0  0  0  0  0  0
    3.2471   -3.0498   -1.0812 C   0  0  0  0  0  0  0  0  0  0  0  0
    2.5158   -3.2207   -0.2848 H   0  0  0  0  0  0  0  0  0  0  0  0
    2.7200   -2.7073   -1.9749 H   0  0  0  0  0  0  0  0  0  0  0  0
    3.7399   -4.0019   -1.3035 H   0  0  0  0  0  0  0  0  0  0  0  0
    4.9922   -2.4251    0.6490 C   0  0  0  0  0  0  0  0  0  0  0  0
    5.5262   -3.3708    0.5107 H   0  0  0  0  0  0  0  0  0  0  0  0
    5.7159   -1.6684    0.9641 H   0  0  0  0  0  0  0  0  0  0  0  0
    4.2464   -2.5463    1.4393 H   0  0  0  0  0  0  0  0  0  0  0  0
  1 51  1  0  0  0  0
  1 49  1  0  0  0  0
  2  1  1  6  0  0  0
  2  3  1  0  0  0  0
  3 29  1  0  0  0  0
  4  8  1  6  0  0  0
  4  3  1  0  0  0  0
  4  5  1  0  0  0  0
  4 67  1  0  0  0  0
  5  7  1  1  0  0  0
  6  2  1  0  0  0  0
  6  5  1  0  0  0  0
  6  9  1  0  0  0  0
  9 10  1  0  0  0  0
 10 11  2  0  0  0  0
 10 21  1  0  0  0  0
 11 15  1  0  0  0  0
 12 25  1  0  0  0  0
 12 11  1  0  0  0  0
 13 12  2  0  0  0  0
 14 13  1  0  0  0  0
 14  9  2  0  0  0  0
 16 13  1  0  0  0  0
 17 14  1  0  0  0  0
 18 17  1  0  0  0  0
 19 17  1  0  0  0  0
 20 17  1  0  0  0  0
 21 23  1  0  0  0  0
 21 22  1  0  0  0  0
 24 21  1  0  0  0  0
 25 28  1  0  0  0  0
 25 27  1  0  0  0  0
 26 25  1  0  0  0  0
 29 30  1  0  0  0  0
 30 31  2  0  0  0  0
 30 42  1  0  0  0  0
 31 32  1  0  0  0  0
 33 36  2  0  0  0  0
 34 33  1  0  0  0  0
 34 29  2  0  0  0  0
 35 33  1  0  0  0  0
 36 45  1  0  0  0  0
 36 31  1  0  0  0  0
 37 34  1  0  0  0  0
 38 37  1  0  0  0  0
 39 37  1  0  0  0  0
 40 37  1  0  0  0  0
 42 41  1  0  0  0  0
 42 43  1  0  0  0  0
 44 42  1  0  0  0  0
 45 47  1  0  0  0  0
 45 46  1  0  0  0  0
 48 45  1  0  0  0  0
 50  1  1  0  0  0  0
 51 52  1  0  0  0  0
 53 58  1  0  0  0  0
 53 51  1  0  0  0  0
 54 53  2  0  0  0  0
 55 56  2  0  0  0  0
 55 54  1  0  0  0  0
 56 57  1  0  0  0  0
 57 60  1  0  0  0  0
 57 58  2  0  0  0  0
 58 59  1  0  0  0  0
 61 56  1  0  0  0  0
 62 55  1  0  0  0  0
 63 54  1  0  0  0  0
 64 67  1  0  0  0  0
 66 68  1  0  0  0  0
 67 66  1  0  0  0  0
 67 65  1  0  0  0  0
 69 70  1  0  0  0  0
 69 71  2  0  0  0  0
 69 66  1  0  0  0  0
 72 69  2  0  0  0  0
 74 75  1  0  0  0  0
 75 73  1  0  0  0  0
 75 70  1  0  0  0  0
 75  5  1  0  0  0  0
 76 70  1  0  0  0  0
 77 63  1  0  0  0  0
 77 83  1  0  0  0  0
 78 77  1  0  0  0  0
 79 77  1  0  0  0  0
 79 80  1  0  0  0  0
 81 79  1  0  0  0  0
 82 79  1  0  0  0  0
 83 85  1  0  0  0  0
 83 86  1  0  0  0  0
 84 83  1  0  0  0  0
M  END
