asd
 OpenBabel07242019243D

 86 90  0  0  1  0  0  0  0  0999 V2000
    0.0000    0.0000    0.0000 Ru  0  0  0  0  0  0  0  0  0  0  0  0
    1.9823    0.0000    0.0000 C   0  0  1  0  0  3  0  0  0  0  0  0
    2.9036    0.0000    0.9966 N   0  0  0  0  0  0  0  0  0  0  0  0
    4.2535   -0.3680    0.5217 C   0  0  1  0  0  0  0  0  0  0  0  0
    4.1236   -0.1090   -0.9835 C   0  0  2  0  0  0  0  0  0  0  0  0
    2.6648   -0.1562   -1.1750 N   0  0  0  0  0  0  0  0  0  0  0  0
    4.4777    0.9008   -1.2083 H   0  0  0  0  0  0  0  0  0  0  0  0
    4.4225   -1.4353    0.7140 H   0  0  0  0  0  0  0  0  0  0  0  0
    2.0955    0.1055   -2.4700 C   0  0  0  0  0  0  0  0  0  0  0  0
    2.0815    1.4311   -2.9550 C   0  0  0  0  0  0  0  0  0  0  0  0
    1.4852    1.6773   -4.1911 C   0  0  0  0  0  0  0  0  0  0  0  0
    0.9095    0.6531   -4.9534 C   0  0  0  0  0  0  0  0  0  0  0  0
    0.9849   -0.6522   -4.4685 C   0  0  0  0  0  0  0  0  0  0  0  0
    1.5903   -0.9553   -3.2414 C   0  0  0  0  0  0  0  0  0  0  0  0
    1.4605    2.6980   -4.5655 H   0  0  0  0  0  0  0  0  0  0  0  0
    0.5761   -1.4668   -5.0619 H   0  0  0  0  0  0  0  0  0  0  0  0
    1.7347   -2.4010   -2.8391 C   0  0  0  0  0  0  0  0  0  0  0  0
    2.5393   -2.8710   -3.4197 H   0  0  0  0  0  0  0  0  0  0  0  0
    1.9563   -2.5117   -1.7796 H   0  0  0  0  0  0  0  0  0  0  0  0
    0.8156   -2.9563   -3.0489 H   0  0  0  0  0  0  0  0  0  0  0  0
    2.7203    2.5669   -2.1958 C   0  0  0  0  0  0  0  0  0  0  0  0
    2.2784    3.5210   -2.4946 H   0  0  0  0  0  0  0  0  0  0  0  0
    3.7960    2.6228   -2.4078 H   0  0  0  0  0  0  0  0  0  0  0  0
    2.5894    2.4626   -1.1180 H   0  0  0  0  0  0  0  0  0  0  0  0
    0.2218    0.9613   -6.2608 C   0  0  0  0  0  0  0  0  0  0  0  0
    0.1105    0.0628   -6.8751 H   0  0  0  0  0  0  0  0  0  0  0  0
    0.7789    1.7073   -6.8377 H   0  0  0  0  0  0  0  0  0  0  0  0
   -0.7818    1.3706   -6.0876 H   0  0  0  0  0  0  0  0  0  0  0  0
    2.6314    0.1564    2.3907 C   0  0  0  0  0  0  0  0  0  0  0  0
    2.4664    1.4590    2.8950 C   0  0  0  0  0  0  0  0  0  0  0  0
    2.1518    1.6073    4.2481 C   0  0  0  0  0  0  0  0  0  0  0  0
    2.0040    2.6080    4.6460 H   0  0  0  0  0  0  0  0  0  0  0  0
    2.1937   -0.7754    4.5620 C   0  0  0  0  0  0  0  0  0  0  0  0
    2.5138   -0.9738    3.2146 C   0  0  0  0  0  0  0  0  0  0  0  0
    2.0787   -1.6438    5.2060 H   0  0  0  0  0  0  0  0  0  0  0  0
    2.0064    0.5031    5.0964 C   0  0  0  0  0  0  0  0  0  0  0  0
    2.6909   -2.3675    2.6680 C   0  0  0  0  0  0  0  0  0  0  0  0
    2.2916   -3.1070    3.3679 H   0  0  0  0  0  0  0  0  0  0  0  0
    3.7510   -2.6047    2.5126 H   0  0  0  0  0  0  0  0  0  0  0  0
    2.1750   -2.4862    1.7106 H   0  0  0  0  0  0  0  0  0  0  0  0
    3.4784    2.6907    1.4247 H   0  0  0  0  0  0  0  0  0  0  0  0
    2.5412    2.6620    1.9899 C   0  0  0  0  0  0  0  0  0  0  0  0
    2.4675    3.5847    2.5719 H   0  0  0  0  0  0  0  0  0  0  0  0
    1.7260    2.6499    1.2572 H   0  0  0  0  0  0  0  0  0  0  0  0
    1.6784    0.6921    6.5572 C   0  0  0  0  0  0  0  0  0  0  0  0
    1.0097    1.5458    6.7078 H   0  0  0  0  0  0  0  0  0  0  0  0
    2.5880    0.8842    7.1409 H   0  0  0  0  0  0  0  0  0  0  0  0
    1.2013   -0.1989    6.9767 H   0  0  0  0  0  0  0  0  0  0  0  0
   -0.2777    2.2832   -0.6911 Cl  0  0  0  0  0  0  0  0  0  0  0  0
   -0.0546   -2.4058    0.0580 Cl  0  0  0  0  0  0  0  0  0  0  0  0
   -0.3894    0.2514    1.7774 C   0  0  0  0  0  3  0  0  0  0  0  0
    0.3336    0.4391    2.5664 H   0  0  0  0  0  0  0  0  0  0  0  0
   -1.7631    0.1956    2.2171 C   0  0  0  0  0  0  0  0  0  0  0  0
   -2.7802   -0.0058    1.2523 C   0  0  0  0  0  0  0  0  0  0  0  0
   -4.1190   -0.0863    1.6280 C   0  0  0  0  0  0  0  0  0  0  0  0
   -4.4452    0.0378    2.9829 C   0  0  0  0  0  0  0  0  0  0  0  0
   -3.4609    0.2412    3.9566 C   0  0  0  0  0  0  0  0  0  0  0  0
   -2.1266    0.3195    3.5723 C   0  0  0  0  0  0  0  0  0  0  0  0
   -1.3411    0.4729    4.3075 H   0  0  0  0  0  0  0  0  0  0  0  0
   -3.7383    0.3366    5.0012 H   0  0  0  0  0  0  0  0  0  0  0  0
   -5.4891   -0.0244    3.2752 H   0  0  0  0  0  0  0  0  0  0  0  0
   -4.9045   -0.2394    0.8995 H   0  0  0  0  0  0  0  0  0  0  0  0
   -2.3031   -0.1210   -0.0222 O   0  0  0  0  0  0  0  0  0  0  0  0
    5.2642    0.4228    2.2691 H   0  0  0  0  0  0  0  0  0  0  0  0
    5.3438    1.4802    0.8549 H   0  0  0  0  0  0  0  0  0  0  0  0
    6.7226   -0.0878    0.9051 N   0  0  0  0  0  0  0  0  0  0  0  0
    5.3774    0.4391    1.1832 C   0  0  0  0  0  0  0  0  0  0  0  0
    6.9043   -0.9731    1.3767 H   0  0  0  0  0  0  0  0  0  0  0  0
    7.1892   -0.2308   -0.6968 S   0  0  0  0  0  0  0  0  0  0  0  0
    6.2003   -1.4334   -1.3283 N   0  0  0  0  0  0  0  0  0  0  0  0
    6.9142    1.0696   -1.3169 O   0  0  0  0  0  0  0  0  0  0  0  0
    8.5357   -0.7999   -0.6961 O   0  0  0  0  0  0  0  0  0  0  0  0
    4.9340   -0.7084   -2.8922 H   0  0  0  0  0  0  0  0  0  0  0  0
    4.3195   -2.0479   -1.9005 H   0  0  0  0  0  0  0  0  0  0  0  0
    4.8704   -1.1058   -1.8736 C   0  0  0  0  0  0  0  0  0  0  0  0
    6.7541   -2.0339   -1.9352 H   0  0  0  0  0  0  0  0  0  0  0  0
   -3.2157   -0.1687   -1.1691 C   0  0  0  0  0  0  0  0  0  0  0  0
   -3.9932   -0.8956   -0.9148 H   0  0  0  0  0  0  0  0  0  0  0  0
   -2.4115   -0.6859   -2.3496 C   0  0  0  0  0  0  0  0  0  0  0  0
   -1.6306    0.0258   -2.6353 H   0  0  0  0  0  0  0  0  0  0  0  0
   -1.9433   -1.6445   -2.1130 H   0  0  0  0  0  0  0  0  0  0  0  0
   -3.0831   -0.8199   -3.2037 H   0  0  0  0  0  0  0  0  0  0  0  0
   -3.8099    1.2114   -1.4149 C   0  0  0  0  0  0  0  0  0  0  0  0
   -4.5100    1.1608   -2.2551 H   0  0  0  0  0  0  0  0  0  0  0  0
   -4.3525    1.5833   -0.5414 H   0  0  0  0  0  0  0  0  0  0  0  0
   -3.0101    1.9168   -1.6560 H   0  0  0  0  0  0  0  0  0  0  0  0
  1 50  1  0  0  0  0
  1 51  1  0  0  0  0
  2  1  1  1  0  0  0
  2  3  1  0  0  0  0
  3 29  1  0  0  0  0
  4  8  1  1  0  0  0
  4  3  1  0  0  0  0
  4 67  1  0  0  0  0
  5  7  1  6  0  0  0
  5  4  1  0  0  0  0
  6  5  1  0  0  0  0
  6  2  1  0  0  0  0
  9  6  1  0  0  0  0
 10  9  1  0  0  0  0
 10 21  1  0  0  0  0
 11 10  2  0  0  0  0
 12 13  2  0  0  0  0
 12 11  1  0  0  0  0
 13 14  1  0  0  0  0
 14 17  1  0  0  0  0
 14  9  2  0  0  0  0
 15 11  1  0  0  0  0
 16 13  1  0  0  0  0
 17 19  1  0  0  0  0
 18 17  1  0  0  0  0
 20 17  1  0  0  0  0
 21 24  1  0  0  0  0
 22 21  1  0  0  0  0
 23 21  1  0  0  0  0
 25 28  1  0  0  0  0
 25 12  1  0  0  0  0
 26 25  1  0  0  0  0
 27 25  1  0  0  0  0
 29 30  2  0  0  0  0
 29 34  1  0  0  0  0
 30 31  1  0  0  0  0
 31 32  1  0  0  0  0
 31 36  2  0  0  0  0
 33 36  1  0  0  0  0
 33 35  1  0  0  0  0
 34 33  2  0  0  0  0
 36 45  1  0  0  0  0
 37 34  1  0  0  0  0
 37 38  1  0  0  0  0
 39 37  1  0  0  0  0
 40 37  1  0  0  0  0
 41 42  1  0  0  0  0
 42 43  1  0  0  0  0
 42 30  1  0  0  0  0
 44 42  1  0  0  0  0
 45 46  1  0  0  0  0
 45 48  1  0  0  0  0
 45 47  1  0  0  0  0
 49  1  1  0  0  0  0
 51 53  1  0  0  0  0
 51 52  1  0  0  0  0
 53 58  1  0  0  0  0
 54 55  1  0  0  0  0
 54 53  2  0  0  0  0
 55 56  2  0  0  0  0
 56 61  1  0  0  0  0
 56 57  1  0  0  0  0
 57 60  1  0  0  0  0
 58 57  2  0  0  0  0
 58 59  1  0  0  0  0
 62 55  1  0  0  0  0
 63 54  1  0  0  0  0
 65 67  1  0  0  0  0
 66 67  1  0  0  0  0
 66 68  1  0  0  0  0
 67 64  1  0  0  0  0
 69 72  2  0  0  0  0
 69 66  1  0  0  0  0
 70 69  1  0  0  0  0
 71 69  2  0  0  0  0
 73 75  1  0  0  0  0
 74 75  1  0  0  0  0
 75 70  1  0  0  0  0
 75  5  1  0  0  0  0
 76 70  1  0  0  0  0
 77 78  1  0  0  0  0
 77 63  1  0  0  0  0
 79 81  1  0  0  0  0
 79 77  1  0  0  0  0
 80 79  1  0  0  0  0
 82 79  1  0  0  0  0
 83 77  1  0  0  0  0
 83 85  1  0  0  0  0
 84 83  1  0  0  0  0
 86 83  1  0  0  0  0
M  END
$$$$
asd
 OpenBabel07242019243D

 86 90  0  0  1  0  0  0  0  0999 V2000
    0.0000    0.0000    0.0000 Ru  0  0  0  0  0  0  0  0  0  0  0  0
    1.9823    0.0000    0.0000 C   0  0  1  0  0  3  0  0  0  0  0  0
    2.9036    0.0000    0.9966 N   0  0  0  0  0  0  0  0  0  0  0  0
    4.2535   -0.3680    0.5217 C   0  0  1  0  0  0  0  0  0  0  0  0
    4.1236   -0.1090   -0.9835 C   0  0  2  0  0  0  0  0  0  0  0  0
    2.6648   -0.1562   -1.1750 N   0  0  0  0  0  0  0  0  0  0  0  0
    4.4777    0.9008   -1.2083 H   0  0  0  0  0  0  0  0  0  0  0  0
    4.4225   -1.4353    0.7140 H   0  0  0  0  0  0  0  0  0  0  0  0
    2.0955    0.1055   -2.4700 C   0  0  0  0  0  0  0  0  0  0  0  0
    2.0815    1.4311   -2.9550 C   0  0  0  0  0  0  0  0  0  0  0  0
    1.4852    1.6773   -4.1911 C   0  0  0  0  0  0  0  0  0  0  0  0
    0.9095    0.6531   -4.9534 C   0  0  0  0  0  0  0  0  0  0  0  0
    0.9849   -0.6522   -4.4685 C   0  0  0  0  0  0  0  0  0  0  0  0
    1.5903   -0.9553   -3.2414 C   0  0  0  0  0  0  0  0  0  0  0  0
    1.4605    2.6980   -4.5655 H   0  0  0  0  0  0  0  0  0  0  0  0
    0.5761   -1.4668   -5.0619 H   0  0  0  0  0  0  0  0  0  0  0  0
    1.7347   -2.4010   -2.8391 C   0  0  0  0  0  0  0  0  0  0  0  0
    2.5393   -2.8710   -3.4197 H   0  0  0  0  0  0  0  0  0  0  0  0
    1.9563   -2.5117   -1.7796 H   0  0  0  0  0  0  0  0  0  0  0  0
    0.8156   -2.9563   -3.0489 H   0  0  0  0  0  0  0  0  0  0  0  0
    2.7203    2.5669   -2.1958 C   0  0  0  0  0  0  0  0  0  0  0  0
    2.2784    3.5210   -2.4946 H   0  0  0  0  0  0  0  0  0  0  0  0
    3.7960    2.6228   -2.4078 H   0  0  0  0  0  0  0  0  0  0  0  0
    2.5894    2.4626   -1.1180 H   0  0  0  0  0  0  0  0  0  0  0  0
    0.2218    0.9613   -6.2608 C   0  0  0  0  0  0  0  0  0  0  0  0
    0.1105    0.0628   -6.8751 H   0  0  0  0  0  0  0  0  0  0  0  0
    0.7789    1.7073   -6.8377 H   0  0  0  0  0  0  0  0  0  0  0  0
   -0.7818    1.3706   -6.0876 H   0  0  0  0  0  0  0  0  0  0  0  0
    2.6314    0.1564    2.3907 C   0  0  0  0  0  0  0  0  0  0  0  0
    2.4664    1.4590    2.8950 C   0  0  0  0  0  0  0  0  0  0  0  0
    2.1518    1.6073    4.2481 C   0  0  0  0  0  0  0  0  0  0  0  0
    2.0040    2.6080    4.6460 H   0  0  0  0  0  0  0  0  0  0  0  0
    2.1937   -0.7754    4.5620 C   0  0  0  0  0  0  0  0  0  0  0  0
    2.5138   -0.9738    3.2146 C   0  0  0  0  0  0  0  0  0  0  0  0
    2.0787   -1.6438    5.2060 H   0  0  0  0  0  0  0  0  0  0  0  0
    2.0064    0.5031    5.0964 C   0  0  0  0  0  0  0  0  0  0  0  0
    2.6909   -2.3675    2.6680 C   0  0  0  0  0  0  0  0  0  0  0  0
    2.2916   -3.1070    3.3679 H   0  0  0  0  0  0  0  0  0  0  0  0
    3.7510   -2.6047    2.5126 H   0  0  0  0  0  0  0  0  0  0  0  0
    2.1750   -2.4862    1.7106 H   0  0  0  0  0  0  0  0  0  0  0  0
    3.4784    2.6907    1.4247 H   0  0  0  0  0  0  0  0  0  0  0  0
    2.5412    2.6620    1.9899 C   0  0  0  0  0  0  0  0  0  0  0  0
    2.4675    3.5847    2.5719 H   0  0  0  0  0  0  0  0  0  0  0  0
    1.7260    2.6499    1.2572 H   0  0  0  0  0  0  0  0  0  0  0  0
    1.6784    0.6921    6.5572 C   0  0  0  0  0  0  0  0  0  0  0  0
    1.0097    1.5458    6.7078 H   0  0  0  0  0  0  0  0  0  0  0  0
    2.5880    0.8842    7.1409 H   0  0  0  0  0  0  0  0  0  0  0  0
    1.2013   -0.1989    6.9767 H   0  0  0  0  0  0  0  0  0  0  0  0
   -0.2777    2.2832   -0.6911 Cl  0  0  0  0  0  0  0  0  0  0  0  0
   -0.0546   -2.4058    0.0580 Cl  0  0  0  0  0  0  0  0  0  0  0  0
   -0.3894    0.2514    1.7774 C   0  0  0  0  0  3  0  0  0  0  0  0
    0.3336    0.4391    2.5664 H   0  0  0  0  0  0  0  0  0  0  0  0
   -1.7631    0.1956    2.2171 C   0  0  0  0  0  0  0  0  0  0  0  0
   -2.7802   -0.0058    1.2523 C   0  0  0  0  0  0  0  0  0  0  0  0
   -4.1190   -0.0863    1.6280 C   0  0  0  0  0  0  0  0  0  0  0  0
   -4.4452    0.0378    2.9829 C   0  0  0  0  0  0  0  0  0  0  0  0
   -3.4609    0.2412    3.9566 C   0  0  0  0  0  0  0  0  0  0  0  0
   -2.1266    0.3195    3.5723 C   0  0  0  0  0  0  0  0  0  0  0  0
   -1.3411    0.4729    4.3075 H   0  0  0  0  0  0  0  0  0  0  0  0
   -3.7383    0.3366    5.0012 H   0  0  0  0  0  0  0  0  0  0  0  0
   -5.4891   -0.0244    3.2752 H   0  0  0  0  0  0  0  0  0  0  0  0
   -4.9045   -0.2394    0.8995 H   0  0  0  0  0  0  0  0  0  0  0  0
   -2.3031   -0.1210   -0.0222 O   0  0  0  0  0  0  0  0  0  0  0  0
    5.2642    0.4228    2.2691 H   0  0  0  0  0  0  0  0  0  0  0  0
    5.3438    1.4802    0.8549 H   0  0  0  0  0  0  0  0  0  0  0  0
    6.7226   -0.0878    0.9051 N   0  0  0  0  0  0  0  0  0  0  0  0
    5.3774    0.4391    1.1832 C   0  0  0  0  0  0  0  0  0  0  0  0
    6.9043   -0.9731    1.3767 H   0  0  0  0  0  0  0  0  0  0  0  0
    7.1892   -0.2308   -0.6968 S   0  0  0  0  0  0  0  0  0  0  0  0
    6.2003   -1.4334   -1.3283 N   0  0  0  0  0  0  0  0  0  0  0  0
    6.9142    1.0696   -1.3169 O   0  0  0  0  0  0  0  0  0  0  0  0
    8.5357   -0.7999   -0.6961 O   0  0  0  0  0  0  0  0  0  0  0  0
    4.9340   -0.7084   -2.8922 H   0  0  0  0  0  0  0  0  0  0  0  0
    4.3195   -2.0479   -1.9005 H   0  0  0  0  0  0  0  0  0  0  0  0
    4.8704   -1.1058   -1.8736 C   0  0  0  0  0  0  0  0  0  0  0  0
    6.7541   -2.0339   -1.9352 H   0  0  0  0  0  0  0  0  0  0  0  0
   -3.2157   -0.1687   -1.1691 C   0  0  0  0  0  0  0  0  0  0  0  0
   -4.0425    0.5085   -0.9340 H   0  0  0  0  0  0  0  0  0  0  0  0
   -3.7407   -1.5917   -1.2543 C   0  0  0  0  0  0  0  0  0  0  0  0
   -2.9370   -2.2932   -1.4993 H   0  0  0  0  0  0  0  0  0  0  0  0
   -4.1969   -1.8966   -0.3094 H   0  0  0  0  0  0  0  0  0  0  0  0
   -4.4950   -1.6437   -2.0460 H   0  0  0  0  0  0  0  0  0  0  0  0
   -2.4844    0.2705   -2.4303 C   0  0  0  0  0  0  0  0  0  0  0  0
   -3.1797    0.2579   -3.2760 H   0  0  0  0  0  0  0  0  0  0  0  0
   -2.0810    1.2824   -2.3363 H   0  0  0  0  0  0  0  0  0  0  0  0
   -1.6594   -0.4174   -2.6336 H   0  0  0  0  0  0  0  0  0  0  0  0
  1 50  1  0  0  0  0
  1 51  1  0  0  0  0
  2  1  1  1  0  0  0
  2  3  1  0  0  0  0
  3 29  1  0  0  0  0
  4  8  1  1  0  0  0
  4  3  1  0  0  0  0
  4 67  1  0  0  0  0
  5  7  1  6  0  0  0
  5  4  1  0  0  0  0
  6  5  1  0  0  0  0
  6  2  1  0  0  0  0
  9  6  1  0  0  0  0
 10  9  1  0  0  0  0
 10 21  1  0  0  0  0
 11 10  2  0  0  0  0
 12 13  2  0  0  0  0
 12 11  1  0  0  0  0
 13 14  1  0  0  0  0
 14 17  1  0  0  0  0
 14  9  2  0  0  0  0
 15 11  1  0  0  0  0
 16 13  1  0  0  0  0
 17 19  1  0  0  0  0
 18 17  1  0  0  0  0
 20 17  1  0  0  0  0
 21 24  1  0  0  0  0
 22 21  1  0  0  0  0
 23 21  1  0  0  0  0
 25 28  1  0  0  0  0
 25 12  1  0  0  0  0
 26 25  1  0  0  0  0
 27 25  1  0  0  0  0
 29 30  2  0  0  0  0
 29 34  1  0  0  0  0
 30 31  1  0  0  0  0
 31 32  1  0  0  0  0
 31 36  2  0  0  0  0
 33 36  1  0  0  0  0
 33 35  1  0  0  0  0
 34 33  2  0  0  0  0
 36 45  1  0  0  0  0
 37 34  1  0  0  0  0
 37 38  1  0  0  0  0
 39 37  1  0  0  0  0
 40 37  1  0  0  0  0
 41 42  1  0  0  0  0
 42 43  1  0  0  0  0
 42 30  1  0  0  0  0
 44 42  1  0  0  0  0
 45 46  1  0  0  0  0
 45 48  1  0  0  0  0
 45 47  1  0  0  0  0
 49  1  1  0  0  0  0
 51 53  1  0  0  0  0
 51 52  1  0  0  0  0
 53 58  1  0  0  0  0
 54 55  1  0  0  0  0
 54 53  2  0  0  0  0
 55 56  2  0  0  0  0
 56 61  1  0  0  0  0
 56 57  1  0  0  0  0
 57 60  1  0  0  0  0
 58 57  2  0  0  0  0
 58 59  1  0  0  0  0
 62 55  1  0  0  0  0
 63 54  1  0  0  0  0
 65 67  1  0  0  0  0
 66 67  1  0  0  0  0
 66 68  1  0  0  0  0
 67 64  1  0  0  0  0
 69 72  2  0  0  0  0
 69 66  1  0  0  0  0
 70 69  1  0  0  0  0
 71 69  2  0  0  0  0
 73 75  1  0  0  0  0
 74 75  1  0  0  0  0
 75 70  1  0  0  0  0
 75  5  1  0  0  0  0
 76 70  1  0  0  0  0
 77 78  1  0  0  0  0
 77 63  1  0  0  0  0
 79 77  1  0  0  0  0
 79 81  1  0  0  0  0
 80 79  1  0  0  0  0
 82 79  1  0  0  0  0
 83 85  1  0  0  0  0
 83 77  1  0  0  0  0
 84 83  1  0  0  0  0
 86 83  1  0  0  0  0
M  END
$$$$
asd
 OpenBabel07242019243D

 86 90  0  0  1  0  0  0  0  0999 V2000
    0.0000    0.0000    0.0000 Ru  0  0  0  0  0  0  0  0  0  0  0  0
    1.9823    0.0000    0.0000 C   0  0  1  0  0  3  0  0  0  0  0  0
    2.9036    0.0000    0.9966 N   0  0  0  0  0  0  0  0  0  0  0  0
    4.2535   -0.3680    0.5217 C   0  0  1  0  0  0  0  0  0  0  0  0
    4.1236   -0.1090   -0.9835 C   0  0  2  0  0  0  0  0  0  0  0  0
    2.6648   -0.1562   -1.1750 N   0  0  0  0  0  0  0  0  0  0  0  0
    4.4777    0.9008   -1.2083 H   0  0  0  0  0  0  0  0  0  0  0  0
    4.4225   -1.4353    0.7140 H   0  0  0  0  0  0  0  0  0  0  0  0
    2.0955    0.1055   -2.4700 C   0  0  0  0  0  0  0  0  0  0  0  0
    2.0815    1.4311   -2.9550 C   0  0  0  0  0  0  0  0  0  0  0  0
    1.4852    1.6773   -4.1911 C   0  0  0  0  0  0  0  0  0  0  0  0
    0.9095    0.6531   -4.9534 C   0  0  0  0  0  0  0  0  0  0  0  0
    0.9849   -0.6522   -4.4685 C   0  0  0  0  0  0  0  0  0  0  0  0
    1.5903   -0.9553   -3.2414 C   0  0  0  0  0  0  0  0  0  0  0  0
    1.4605    2.6980   -4.5655 H   0  0  0  0  0  0  0  0  0  0  0  0
    0.5761   -1.4668   -5.0619 H   0  0  0  0  0  0  0  0  0  0  0  0
    1.7347   -2.4010   -2.8391 C   0  0  0  0  0  0  0  0  0  0  0  0
    2.5393   -2.8710   -3.4197 H   0  0  0  0  0  0  0  0  0  0  0  0
    1.9563   -2.5117   -1.7796 H   0  0  0  0  0  0  0  0  0  0  0  0
    0.8156   -2.9563   -3.0489 H   0  0  0  0  0  0  0  0  0  0  0  0
    2.7203    2.5669   -2.1958 C   0  0  0  0  0  0  0  0  0  0  0  0
    2.2784    3.5210   -2.4946 H   0  0  0  0  0  0  0  0  0  0  0  0
    3.7960    2.6228   -2.4078 H   0  0  0  0  0  0  0  0  0  0  0  0
    2.5894    2.4626   -1.1180 H   0  0  0  0  0  0  0  0  0  0  0  0
    0.2218    0.9613   -6.2608 C   0  0  0  0  0  0  0  0  0  0  0  0
    0.1105    0.0628   -6.8751 H   0  0  0  0  0  0  0  0  0  0  0  0
    0.7789    1.7073   -6.8377 H   0  0  0  0  0  0  0  0  0  0  0  0
   -0.7818    1.3706   -6.0876 H   0  0  0  0  0  0  0  0  0  0  0  0
    2.6314    0.1564    2.3907 C   0  0  0  0  0  0  0  0  0  0  0  0
    2.4664    1.4590    2.8950 C   0  0  0  0  0  0  0  0  0  0  0  0
    2.1518    1.6073    4.2481 C   0  0  0  0  0  0  0  0  0  0  0  0
    2.0040    2.6080    4.6460 H   0  0  0  0  0  0  0  0  0  0  0  0
    2.1937   -0.7754    4.5620 C   0  0  0  0  0  0  0  0  0  0  0  0
    2.5138   -0.9738    3.2146 C   0  0  0  0  0  0  0  0  0  0  0  0
    2.0787   -1.6438    5.2060 H   0  0  0  0  0  0  0  0  0  0  0  0
    2.0064    0.5031    5.0964 C   0  0  0  0  0  0  0  0  0  0  0  0
    2.6909   -2.3675    2.6680 C   0  0  0  0  0  0  0  0  0  0  0  0
    2.2916   -3.1070    3.3679 H   0  0  0  0  0  0  0  0  0  0  0  0
    3.7510   -2.6047    2.5126 H   0  0  0  0  0  0  0  0  0  0  0  0
    2.1750   -2.4862    1.7106 H   0  0  0  0  0  0  0  0  0  0  0  0
    3.4784    2.6907    1.4247 H   0  0  0  0  0  0  0  0  0  0  0  0
    2.5412    2.6620    1.9899 C   0  0  0  0  0  0  0  0  0  0  0  0
    2.4675    3.5847    2.5719 H   0  0  0  0  0  0  0  0  0  0  0  0
    1.7260    2.6499    1.2572 H   0  0  0  0  0  0  0  0  0  0  0  0
    1.6784    0.6921    6.5572 C   0  0  0  0  0  0  0  0  0  0  0  0
    1.0097    1.5458    6.7078 H   0  0  0  0  0  0  0  0  0  0  0  0
    2.5880    0.8842    7.1409 H   0  0  0  0  0  0  0  0  0  0  0  0
    1.2013   -0.1989    6.9767 H   0  0  0  0  0  0  0  0  0  0  0  0
   -0.2777    2.2832   -0.6911 Cl  0  0  0  0  0  0  0  0  0  0  0  0
   -0.0546   -2.4058    0.0580 Cl  0  0  0  0  0  0  0  0  0  0  0  0
   -0.3894    0.2514    1.7774 C   0  0  0  0  0  3  0  0  0  0  0  0
    0.3336    0.4391    2.5664 H   0  0  0  0  0  0  0  0  0  0  0  0
   -1.7631    0.1956    2.2171 C   0  0  0  0  0  0  0  0  0  0  0  0
   -2.7802   -0.0058    1.2523 C   0  0  0  0  0  0  0  0  0  0  0  0
   -4.1190   -0.0863    1.6280 C   0  0  0  0  0  0  0  0  0  0  0  0
   -4.4452    0.0378    2.9829 C   0  0  0  0  0  0  0  0  0  0  0  0
   -3.4609    0.2412    3.9566 C   0  0  0  0  0  0  0  0  0  0  0  0
   -2.1266    0.3195    3.5723 C   0  0  0  0  0  0  0  0  0  0  0  0
   -1.3411    0.4729    4.3075 H   0  0  0  0  0  0  0  0  0  0  0  0
   -3.7383    0.3366    5.0012 H   0  0  0  0  0  0  0  0  0  0  0  0
   -5.4891   -0.0244    3.2752 H   0  0  0  0  0  0  0  0  0  0  0  0
   -4.9045   -0.2394    0.8995 H   0  0  0  0  0  0  0  0  0  0  0  0
   -2.3031   -0.1210   -0.0222 O   0  0  0  0  0  0  0  0  0  0  0  0
    5.2642    0.4228    2.2691 H   0  0  0  0  0  0  0  0  0  0  0  0
    5.3438    1.4802    0.8549 H   0  0  0  0  0  0  0  0  0  0  0  0
    6.7226   -0.0878    0.9051 N   0  0  0  0  0  0  0  0  0  0  0  0
    5.3774    0.4391    1.1832 C   0  0  0  0  0  0  0  0  0  0  0  0
    6.9043   -0.9731    1.3767 H   0  0  0  0  0  0  0  0  0  0  0  0
    7.1892   -0.2308   -0.6968 S   0  0  0  0  0  0  0  0  0  0  0  0
    6.2003   -1.4334   -1.3283 N   0  0  0  0  0  0  0  0  0  0  0  0
    6.9142    1.0696   -1.3169 O   0  0  0  0  0  0  0  0  0  0  0  0
    8.5357   -0.7999   -0.6961 O   0  0  0  0  0  0  0  0  0  0  0  0
    4.9340   -0.7084   -2.8922 H   0  0  0  0  0  0  0  0  0  0  0  0
    4.3195   -2.0479   -1.9005 H   0  0  0  0  0  0  0  0  0  0  0  0
    4.8704   -1.1058   -1.8736 C   0  0  0  0  0  0  0  0  0  0  0  0
    6.7541   -2.0339   -1.9352 H   0  0  0  0  0  0  0  0  0  0  0  0
   -3.2157   -0.1687   -1.1691 C   0  0  0  0  0  0  0  0  0  0  0  0
   -2.5860   -0.1955   -2.0637 H   0  0  0  0  0  0  0  0  0  0  0  0
   -4.0103    1.1259   -1.1528 C   0  0  0  0  0  0  0  0  0  0  0  0
   -4.6595    1.1777   -0.2732 H   0  0  0  0  0  0  0  0  0  0  0  0
   -3.3446    1.9924   -1.1494 H   0  0  0  0  0  0  0  0  0  0  0  0
   -4.6402    1.1656   -2.0473 H   0  0  0  0  0  0  0  0  0  0  0  0
   -4.0969   -1.4071   -1.0775 C   0  0  0  0  0  0  0  0  0  0  0  0
   -4.7558   -1.4491   -1.9509 H   0  0  0  0  0  0  0  0  0  0  0  0
   -3.5063   -2.3269   -1.0520 H   0  0  0  0  0  0  0  0  0  0  0  0
   -4.7056   -1.3571   -0.1707 H   0  0  0  0  0  0  0  0  0  0  0  0
  1 50  1  0  0  0  0
  1 51  1  0  0  0  0
  2  1  1  1  0  0  0
  2  3  1  0  0  0  0
  3 29  1  0  0  0  0
  4  8  1  1  0  0  0
  4  3  1  0  0  0  0
  4 67  1  0  0  0  0
  5  7  1  6  0  0  0
  5  4  1  0  0  0  0
  6  5  1  0  0  0  0
  6  2  1  0  0  0  0
  9  6  1  0  0  0  0
 10  9  1  0  0  0  0
 10 21  1  0  0  0  0
 11 10  2  0  0  0  0
 12 13  2  0  0  0  0
 12 11  1  0  0  0  0
 13 14  1  0  0  0  0
 14 17  1  0  0  0  0
 14  9  2  0  0  0  0
 15 11  1  0  0  0  0
 16 13  1  0  0  0  0
 17 19  1  0  0  0  0
 18 17  1  0  0  0  0
 20 17  1  0  0  0  0
 21 24  1  0  0  0  0
 22 21  1  0  0  0  0
 23 21  1  0  0  0  0
 25 28  1  0  0  0  0
 25 12  1  0  0  0  0
 26 25  1  0  0  0  0
 27 25  1  0  0  0  0
 29 30  2  0  0  0  0
 29 34  1  0  0  0  0
 30 31  1  0  0  0  0
 31 32  1  0  0  0  0
 31 36  2  0  0  0  0
 33 36  1  0  0  0  0
 33 35  1  0  0  0  0
 34 33  2  0  0  0  0
 36 45  1  0  0  0  0
 37 34  1  0  0  0  0
 37 38  1  0  0  0  0
 39 37  1  0  0  0  0
 40 37  1  0  0  0  0
 41 42  1  0  0  0  0
 42 43  1  0  0  0  0
 42 30  1  0  0  0  0
 44 42  1  0  0  0  0
 45 46  1  0  0  0  0
 45 48  1  0  0  0  0
 45 47  1  0  0  0  0
 49  1  1  0  0  0  0
 51 53  1  0  0  0  0
 51 52  1  0  0  0  0
 53 58  1  0  0  0  0
 54 55  1  0  0  0  0
 54 53  2  0  0  0  0
 55 56  2  0  0  0  0
 56 61  1  0  0  0  0
 56 57  1  0  0  0  0
 57 60  1  0  0  0  0
 58 57  2  0  0  0  0
 58 59  1  0  0  0  0
 62 55  1  0  0  0  0
 63 54  1  0  0  0  0
 65 67  1  0  0  0  0
 66 67  1  0  0  0  0
 66 68  1  0  0  0  0
 67 64  1  0  0  0  0
 69 72  2  0  0  0  0
 69 66  1  0  0  0  0
 70 69  1  0  0  0  0
 71 69  2  0  0  0  0
 73 75  1  0  0  0  0
 74 75  1  0  0  0  0
 75 70  1  0  0  0  0
 75  5  1  0  0  0  0
 76 70  1  0  0  0  0
 77 79  1  0  0  0  0
 77 83  1  0  0  0  0
 77 63  1  0  0  0  0
 78 77  1  0  0  0  0
 79 81  1  0  0  0  0
 79 80  1  0  0  0  0
 82 79  1  0  0  0  0
 83 85  1  0  0  0  0
 83 86  1  0  0  0  0
 84 83  1  0  0  0  0
M  END
